****** HSPICE -- O-2018.09-2 linux64 (Oct 18 2018) ******
 Input File: deck.cir
