$DATA1 SOURCE='HSPICE' VERSION='O-2018.09-2 linux64' PARAM_COUNT=1
$OPTION MEASFORM=1
.TITLE '.title delay__a__lh__out__hl__acq_1'
index cin__a__lh_trig cin__a__lh_targ cin__a__lh_q tin__a__lh_trig tin__a__lh_targ tout__out__hl_trig tout__out__hl_targ cap_energy__out__hl_vp0 cap_energy__out__hl_vp1 cap_energy__out__hl_vn0 cap_energy__out__hl_vn1 delay__a__lh__out__hl_trig delay__a__lh__out__hl_targ energy1__a__lh__out__hl__vdd_vdd_harness_v energy1__a__lh__out__hl__vdd_vdd_harness_q energy__a__lh__out__hl_vdd_harness_v energy__a__lh__out__hl_vdd_harness_q leakage_power1__vdd_vdd_harness_v leakage_power1__vdd_vdd_harness_i leakage_power2__vdd_vdd_harness_v leakage_power2__vdd_vdd_harness_i temper alter#
   1.0000000  1.062500e-11  2.187500e-11 -1.617243e-15  1.125000e-11  2.125000e-11    failed    failed  7.929832e-02    0.1852570    0.    0.  1.625000e-11    failed    1.2000000 -1.778354e-28    1.2000000 -1.778354e-28    1.2000000 -7.033337e-21    1.2000000 -1.511130e-21    0. 1
   2.0000000  1.062500e-11  2.187500e-11 -1.642304e-15  1.125000e-11  2.125000e-11    failed    failed  7.929831e-02    0.1644607    0.    0.  1.625000e-11    failed    1.2000000    0.    1.2000000    0.    1.2000000 -1.017487e-21    1.2000000 -1.087807e-21    0. 1
   3.0000000  1.062500e-11  2.187500e-11 -1.667706e-15  1.125000e-11  2.125000e-11    failed    failed  7.929831e-02    0.1297433    0.    0.  1.625000e-11    failed    1.2000000    0.    1.2000000    0.    1.2000000 -6.146197e-21    1.2000000 -2.580301e-21    0. 1
   4.0000000  1.062500e-11  2.187500e-11 -1.684248e-15  1.125000e-11  2.125000e-11    failed    failed  7.929831e-02    0.1076663    0.    0.  1.625000e-11    failed    1.2000000    0.    1.2000000    0.    1.2000000 -1.572625e-21    1.2000000 -1.617982e-21    0. 1
   5.0000000  1.062500e-11  2.187500e-11 -1.692611e-15  1.125000e-11  2.125000e-11    failed    failed  7.929831e-02  9.616765e-02    0.    0.  1.625000e-11    failed    1.2000000    0.    1.2000000    0.    1.2000000  1.695747e-22    1.2000000 -7.892470e-22    0. 1
   6.0000000  2.704590e-11  3.338721e-10 -1.686425e-15  4.409180e-11  3.168262e-10    failed    failed  7.929832e-02    0.1852415    0.    0.  1.804590e-10    failed    1.2000000    0.    1.2000000    0.    1.2000000 -6.222076e-21    1.2000000 -9.754969e-22    0. 1
   7.0000000  2.704590e-11  3.338721e-10 -1.711657e-15  4.409180e-11  3.168262e-10    failed    failed  7.929831e-02    0.1644538    0.    0.  1.804590e-10    failed    1.2000000    0.    1.2000000    0.    1.2000000 -1.129877e-21    1.2000000 -9.395319e-22    0. 1
   8.0000000  2.704590e-11  3.338721e-10 -1.756492e-15  4.409180e-11  3.168262e-10    failed    failed  7.929831e-02    0.1297369    0.    0.  1.804590e-10    failed    1.2000000    0.    1.2000000    0.    1.2000000 -1.454344e-21    1.2000000 -1.902139e-21    0. 1
   9.0000000  2.704590e-11  3.338721e-10 -1.782881e-15  4.409180e-11  3.168262e-10    failed    failed  7.929831e-02    0.1076634    0.    0.  1.804590e-10    failed    1.2000000  1.235443e-28    1.2000000  1.235443e-28    1.2000000  8.358281e-22    1.2000000 -1.988357e-21    0. 1
  10.0000000  2.704590e-11  3.338721e-10 -1.794943e-15  4.409180e-11  3.168262e-10    failed    failed  7.929831e-02  9.616580e-02    0.    0.  1.804590e-10    failed    1.2000000    0.    1.2000000    0.    1.2000000 -8.528509e-21    1.2000000 -2.164401e-21    0. 1
  11.0000000  8.468686e-11  1.429050e-09 -1.687234e-15  1.593737e-10  1.354364e-09    failed    failed  7.929832e-02    0.1851841    0.    0.  7.568686e-10    failed    1.2000000  1.157564e-28    1.2000000  1.157564e-28    1.2000000 -1.552065e-21    1.2000000 -2.314729e-21    0. 1
  12.0000000  8.468686e-11  1.429050e-09 -1.712216e-15  1.593737e-10  1.354364e-09    failed    failed  7.929831e-02    0.1644070    0.    0.  7.568686e-10    failed    1.2000000  1.713117e-28    1.2000000  1.713117e-28    1.2000000  4.049608e-22    1.2000000 -8.215091e-22    0. 1
  13.0000000  8.468686e-11  1.429050e-09 -1.757356e-15  1.593737e-10  1.354364e-09    failed    failed  7.929831e-02    0.1297082    0.    0.  7.568686e-10    failed    1.2000000    0.    1.2000000    0.    1.2000000 -8.799634e-22    1.2000000 -8.266333e-22    0. 1
  14.0000000  8.468686e-11  1.429050e-09 -1.781004e-15  1.593737e-10  1.354364e-09    failed    failed  7.929831e-02    0.1076449    0.    0.  7.568686e-10    failed    1.2000000    0.    1.2000000    0.    1.2000000  8.307449e-22    1.2000000 -6.711714e-22    0. 1
  15.0000000  8.468686e-11  1.429050e-09 -1.794990e-15  1.593737e-10  1.354364e-09    failed    failed  7.929831e-02  9.615479e-02    0.    0.  7.568686e-10    failed    1.2000000  2.061388e-28    1.2000000  2.061388e-28    1.2000000 -7.120473e-22    1.2000000 -6.692073e-22    0. 1
  16.0000000  1.947606e-10  3.520451e-09 -1.691181e-15  3.795211e-10  3.335690e-09    failed    failed  7.929832e-02    0.1850660    0.    0.  1.857606e-09    failed    1.2000000    0.    1.2000000    0.    1.2000000  5.316232e-23    1.2000000 -2.995638e-21    0. 1
  17.0000000  1.947606e-10  3.520451e-09 -1.715368e-15  3.795211e-10  3.335690e-09    failed    failed  7.929831e-02    0.1643075    0.    0.  1.857606e-09    failed    1.2000000    0.    1.2000000    0.    1.2000000 -2.326799e-21    1.2000000 -2.264500e-21    0. 1
  18.0000000  1.947606e-10  3.520451e-09 -1.758357e-15  3.795211e-10  3.335690e-09    failed    failed  7.929831e-02    0.1296451    0.    0.  1.857606e-09    failed    1.2000000    0.    1.2000000    0.    1.2000000  3.457734e-21    1.2000000 -6.636607e-22    0. 1
  19.0000000  1.947606e-10  3.520451e-09 -1.785553e-15  3.795211e-10  3.335690e-09    failed    failed  7.929831e-02    0.1076152    0.    0.  1.857606e-09    failed    1.2000000    0.    1.2000000    0.    1.2000000  6.133108e-22    1.2000000 -3.555923e-22    0. 1
  20.0000000  1.947606e-10  3.520451e-09 -1.800901e-15  3.795211e-10  3.335690e-09    failed    failed  7.929831e-02  9.613870e-02    0.    0.  1.857606e-09    failed    1.2000000    0.    1.2000000    0.    1.2000000  1.782906e-21    1.2000000 -4.547563e-22    0. 1
  21.0000000  3.662500e-10  6.778750e-09 -1.690558e-15  7.225000e-10  6.422500e-09    failed    failed  7.929832e-02    0.1848528    0.    0.  3.572500e-09    failed    1.2000000    0.    1.2000000    0.    1.2000000  1.604077e-22    1.2000000  6.377788e-22    0. 1
  22.0000000  3.662500e-10  6.778750e-09 -1.714569e-15  7.225000e-10  6.422500e-09    failed    failed  7.929831e-02    0.1641404    0.    0.  3.572500e-09    failed    1.2000000    0.    1.2000000    0.    1.2000000 -1.343809e-22    1.2000000  5.500358e-22    0. 1
  23.0000000  3.662500e-10  6.778750e-09 -1.759052e-15  7.225000e-10  6.422500e-09    failed    failed  7.929831e-02    0.1295544    0.    0.  3.572500e-09    failed    1.2000000    0.    1.2000000    0.    1.2000000 -1.613890e-21    1.2000000 -9.211998e-22    0. 1
  24.0000000  3.662500e-10  6.778750e-09 -1.782101e-15  7.225000e-10  6.422500e-09    failed    failed  7.929831e-02    0.1075620    0.    0.  3.572500e-09    failed    1.2000000    0.    1.2000000    0.    1.2000000  2.024138e-21    1.2000000  1.698341e-21    0. 1
  25.0000000  3.662500e-10  6.778750e-09 -1.794436e-15  7.225000e-10  6.422500e-09    failed    failed  7.929831e-02  9.610571e-02    0.    0.  3.572500e-09    failed    1.2000000  1.606914e-28    1.2000000  1.606914e-28    1.2000000 -1.915603e-21    1.2000000 -8.361066e-22    0. 1
