$DATA1 SOURCE='HSPICE' VERSION='O-2018.09-2 linux64' PARAM_COUNT=1
$OPTION MEASFORM=1
.TITLE '.title delay__d__hl__out__lh__acq_1'
index cin__d__hl_trig cin__d__hl_targ cin__d__hl_q tin__d__hl_trig tin__d__hl_targ tout__out__lh_trig tout__out__lh_targ cap_energy__out__lh_vp0 cap_energy__out__lh_vp1 cap_energy__out__lh_vn0 cap_energy__out__lh_vn1 delay__d__hl__out__lh_trig delay__d__hl__out__lh_targ energy1__d__hl__out__lh__vdd_vdd_harness_v energy1__d__hl__out__lh__vdd_vdd_harness_q energy__d__hl__out__lh_vdd_harness_v energy__d__hl__out__lh_vdd_harness_q leakage_power1__vdd_vdd_harness_v leakage_power1__vdd_vdd_harness_i leakage_power2__vdd_vdd_harness_v leakage_power2__vdd_vdd_harness_i temper alter#
   1.0000000  1.062500e-11  2.187500e-11  1.821149e-15  1.125000e-11  2.125000e-11    failed    failed    0.1893180    0.1023673    0.    0.  1.625000e-11    failed    1.2000000    0.    1.2000000    0.    1.2000000 -1.209511e-21    1.2000000 -1.419020e-21    0. 1
   2.0000000  1.062500e-11  2.187500e-11  1.834800e-15  1.125000e-11  2.125000e-11    failed    failed    0.1893180    0.1199447    0.    0.  1.625000e-11    failed    1.2000000    0.    1.2000000    0.    1.2000000 -5.325326e-22    1.2000000 -1.608399e-21    0. 1
   3.0000000  1.062500e-11  2.187500e-11  1.856773e-15  1.125000e-11  2.125000e-11    failed    failed    0.1893180    0.1487205    0.    0.  1.625000e-11    failed    1.2000000  1.971407e-28    1.2000000  1.971407e-28    1.2000000  8.139619e-21    1.2000000 -3.244629e-21    0. 1
   4.0000000  1.062500e-11  2.187500e-11  1.870205e-15  1.125000e-11  2.125000e-11    failed    failed    0.1893180    0.1666526    0.    0.  1.625000e-11    failed    1.2000000    0.    1.2000000    0.    1.2000000 -3.956494e-21    1.2000000 -3.834311e-21    0. 1
   5.0000000  1.062500e-11  2.187500e-11  1.877036e-15  1.125000e-11  2.125000e-11    failed    failed    0.1893180    0.1758874    0.    0.  1.625000e-11    failed    1.2000000    0.    1.2000000    0.    1.2000000  2.382070e-21    1.2000000 -2.045279e-21    0. 1
   6.0000000  2.704590e-11  3.338721e-10  1.826678e-15  4.409180e-11  3.168262e-10    failed    failed    0.1893180  9.865387e-02    0.    0.  1.804590e-10    failed    1.2000000    0.    1.2000000    0.    1.2000000  6.279699e-22    1.2000000 -1.569892e-21    0. 1
   7.0000000  2.704590e-11  3.338721e-10  1.841962e-15  4.409180e-11  3.168262e-10    failed    failed    0.1893180    0.1168768    0.    0.  1.804590e-10    failed    1.2000000    0.    1.2000000    0.    1.2000000 -6.707054e-22    1.2000000 -1.526815e-21    0. 1
   8.0000000  2.704590e-11  3.338721e-10  1.866729e-15  4.409180e-11  3.168262e-10    failed    failed    0.1893180    0.1468391    0.    0.  1.804590e-10    failed    1.2000000    0.    1.2000000    0.    1.2000000 -6.436078e-22    1.2000000 -1.076068e-21    0. 1
   9.0000000  2.704590e-11  3.338721e-10  1.873653e-15  4.409180e-11  3.168262e-10    failed    failed    0.1893180    0.1655738    0.    0.  1.804590e-10    failed    1.2000000    0.    1.2000000    0.    1.2000000 -1.847770e-21    1.2000000 -1.939256e-21    0. 1
  10.0000000  2.704590e-11  3.338721e-10  1.886579e-15  4.409180e-11  3.168262e-10    failed    failed    0.1893180    0.1752401    0.    0.  1.804590e-10    failed    1.2000000    0.    1.2000000    0.    1.2000000  1.662731e-21    1.2000000 -3.594244e-21    0. 1
  11.0000000  8.468686e-11  1.429050e-09  1.823782e-15  1.593737e-10  1.354364e-09    failed    failed    0.1893180  9.827970e-02    0.    0.  7.568686e-10    failed    1.2000000    0.    1.2000000    0.    1.2000000 -1.887118e-21    1.2000000 -2.922724e-21    0. 1
  12.0000000  8.468686e-11  1.429050e-09  1.839142e-15  1.593737e-10  1.354364e-09    failed    failed    0.1893180    0.1165459    0.    0.  7.568686e-10    failed    1.2000000    0.    1.2000000    0.    1.2000000 -2.635326e-21    1.2000000 -2.835163e-21    0. 1
  13.0000000  8.468686e-11  1.429050e-09  1.862250e-15  1.593737e-10  1.354364e-09    failed    failed    0.1893180    0.1466109    0.    0.  7.568686e-10    failed    1.2000000    0.    1.2000000    0.    1.2000000  5.300062e-21    1.2000000 -1.456606e-21    0. 1
  14.0000000  8.468686e-11  1.429050e-09  1.876659e-15  1.593737e-10  1.354364e-09    failed    failed    0.1893180    0.1653866    0.    0.  7.568686e-10    failed    1.2000000  1.643935e-28    1.2000000  1.643935e-28    1.2000000 -9.320785e-22    1.2000000 -1.465539e-21    0. 1
  15.0000000  8.468686e-11  1.429050e-09  1.883666e-15  1.593737e-10  1.354364e-09    failed    failed    0.1893180    0.1751555    0.    0.  7.568686e-10    failed    1.2000000    0.    1.2000000    0.    1.2000000  9.344126e-22    1.2000000 -2.265069e-21    0. 1
  16.0000000  1.947606e-10  3.520451e-09  1.822381e-15  3.795211e-10  3.335690e-09    failed    failed    0.1893180  9.798238e-02    0.    0.  1.857606e-09    failed    1.2000000  1.197070e-28    1.2000000  1.197070e-28    1.2000000  2.394306e-21    1.2000000 -3.221263e-22    0. 1
  17.0000000  1.947606e-10  3.520451e-09  1.839561e-15  3.795211e-10  3.335690e-09    failed    failed    0.1893180    0.1162717    0.    0.  1.857606e-09    failed    1.2000000  1.596579e-28    1.2000000  1.596579e-28    1.2000000 -2.422237e-21    1.2000000 -2.714237e-21    0. 1
  18.0000000  1.947606e-10  3.520451e-09  1.865068e-15  3.795211e-10  3.335690e-09    failed    failed    0.1893180    0.1464799    0.    0.  1.857606e-09    failed    1.2000000    0.    1.2000000    0.    1.2000000  1.119097e-21    1.2000000  1.661478e-22    0. 1
  19.0000000  1.947606e-10  3.520451e-09  1.878967e-15  3.795211e-10  3.335690e-09    failed    failed    0.1893180    0.1653565    0.    0.  1.857606e-09    failed    1.2000000    0.    1.2000000    0.    1.2000000 -2.446186e-21    1.2000000 -2.817690e-21    0. 1
  20.0000000  1.947606e-10  3.520451e-09  1.887175e-15  3.795211e-10  3.335690e-09    failed    failed    0.1893180    0.1751090    0.    0.  1.857606e-09    failed    1.2000000  1.129543e-28    1.2000000  1.129543e-28    1.2000000  5.099078e-21    1.2000000 -7.839791e-22    0. 1
  21.0000000  3.662500e-10  6.778750e-09  1.824680e-15  7.225000e-10  6.422500e-09    failed    failed    0.1893180  9.780237e-02    0.    0.  3.572500e-09    failed    1.2000000    0.    1.2000000    0.    1.2000000 -2.034963e-21    1.2000000 -2.532536e-21    0. 1
  22.0000000  3.662500e-10  6.778750e-09  1.838936e-15  7.225000e-10  6.422500e-09    failed    failed    0.1893180    0.1161520    0.    0.  3.572500e-09    failed    1.2000000    0.    1.2000000    0.    1.2000000  2.393031e-21    1.2000000  7.772785e-22    0. 1
  23.0000000  3.662500e-10  6.778750e-09  1.860734e-15  7.225000e-10  6.422500e-09    failed    failed    0.1893180    0.1463817    0.    0.  3.572500e-09    failed    1.2000000    0.    1.2000000    0.    1.2000000 -2.450064e-21    1.2000000 -2.797756e-21    0. 1
  24.0000000  3.662500e-10  6.778750e-09  1.880605e-15  7.225000e-10  6.422500e-09    failed    failed    0.1893180    0.1653091    0.    0.  3.572500e-09    failed    1.2000000    0.    1.2000000    0.    1.2000000  1.676027e-21    1.2000000  6.598266e-23    0. 1
  25.0000000  3.662500e-10  6.778750e-09  1.889046e-15  7.225000e-10  6.422500e-09    failed    failed    0.1893180    0.1750820    0.    0.  3.572500e-09    failed    1.2000000    0.    1.2000000    0.    1.2000000 -1.602710e-21    1.2000000 -1.889895e-21    0. 1
