$DATA1 SOURCE='HSPICE' VERSION='O-2018.09-2 linux64' PARAM_COUNT=1
$OPTION MEASFORM=1
.TITLE '.title delay__d__lh__out__hl__acq_1'
index cin__d__lh_trig cin__d__lh_targ cin__d__lh_q tin__d__lh_trig tin__d__lh_targ tout__out__hl_trig tout__out__hl_targ cap_energy__out__hl_vp0 cap_energy__out__hl_vp1 cap_energy__out__hl_vn0 cap_energy__out__hl_vn1 delay__d__lh__out__hl_trig delay__d__lh__out__hl_targ energy1__d__lh__out__hl__vdd_vdd_harness_v energy1__d__lh__out__hl__vdd_vdd_harness_q energy__d__lh__out__hl_vdd_harness_v energy__d__lh__out__hl_vdd_harness_q leakage_power1__vdd_vdd_harness_v leakage_power1__vdd_vdd_harness_i leakage_power2__vdd_vdd_harness_v leakage_power2__vdd_vdd_harness_i temper alter#
   1.0000000  1.062500e-11  2.187500e-11 -1.733445e-15  1.125000e-11  2.125000e-11    failed    failed    0.1296930    0.2223666    0.    0.  1.625000e-11    failed    1.2000000    0.    1.2000000    0.    1.2000000 -3.884043e-22    1.2000000 -1.440700e-21    0. 1
   2.0000000  1.062500e-11  2.187500e-11 -1.750446e-15  1.125000e-11  2.125000e-11    failed    failed    0.1296930    0.2043030    0.    0.  1.625000e-11    failed    1.2000000    0.    1.2000000    0.    1.2000000 -3.396387e-21    1.2000000 -2.090369e-21    0. 1
   3.0000000  1.062500e-11  2.187500e-11 -1.778043e-15  1.125000e-11  2.125000e-11    failed    failed    0.1296930    0.1740043    0.    0.  1.625000e-11    failed    1.2000000    0.    1.2000000    0.    1.2000000 -2.353968e-21    1.2000000 -1.434287e-21    0. 1
   4.0000000  1.062500e-11  2.187500e-11 -1.795221e-15  1.125000e-11  2.125000e-11    failed    failed    0.1296930    0.1546568    0.    0.  1.625000e-11    failed    1.2000000    0.    1.2000000    0.    1.2000000  9.261330e-22    1.2000000 -6.961301e-22    0. 1
   5.0000000  1.062500e-11  2.187500e-11 -1.804057e-15  1.125000e-11  2.125000e-11    failed    failed    0.1296930    0.1445509    0.    0.  1.625000e-11    failed    1.2000000    0.    1.2000000    0.    1.2000000  9.519756e-21    1.2000000  2.203469e-21    0. 1
   6.0000000  2.704590e-11  3.338721e-10 -1.804971e-15  4.409180e-11  3.168262e-10    failed    failed    0.1296930    0.2223779    0.    0.  1.804590e-10    failed    1.2000000  1.599175e-28    1.2000000  1.599175e-28    1.2000000  5.586552e-21    1.2000000 -1.872752e-21    0. 1
   7.0000000  2.704590e-11  3.338721e-10 -1.829759e-15  4.409180e-11  3.168262e-10    failed    failed    0.1296930    0.2043103    0.    0.  1.804590e-10    failed    1.2000000  2.077936e-28    1.2000000  2.077936e-28    1.2000000 -1.904608e-21    1.2000000 -1.102018e-21    0. 1
   8.0000000  2.704590e-11  3.338721e-10 -1.870718e-15  4.409180e-11  3.168262e-10    failed    failed    0.1296930    0.1740094    0.    0.  1.804590e-10    failed    1.2000000    0.    1.2000000    0.    1.2000000 -1.433626e-21    1.2000000 -1.156939e-21    0. 1
   9.0000000  2.704590e-11  3.338721e-10 -1.896764e-15  4.409180e-11  3.168262e-10    failed    failed    0.1296930    0.1546589    0.    0.  1.804590e-10    failed    1.2000000    0.    1.2000000    0.    1.2000000  4.789733e-21    1.2000000  2.090186e-21    0. 1
  10.0000000  2.704590e-11  3.338721e-10 -1.910365e-15  4.409180e-11  3.168262e-10    failed    failed    0.1296930    0.1445520    0.    0.  1.804590e-10    failed    1.2000000  1.420824e-28    1.2000000  1.420824e-28    1.2000000  2.374171e-21    1.2000000  2.972591e-21    0. 1
  11.0000000  8.468686e-11  1.429050e-09 -1.804710e-15  1.593737e-10  1.354364e-09    failed    failed    0.1296930    0.2223768    0.    0.  7.568686e-10    failed    1.2000000  2.221244e-28    1.2000000  2.221244e-28    1.2000000  1.380432e-21    1.2000000 -1.655646e-21    0. 1
  12.0000000  8.468686e-11  1.429050e-09 -1.828189e-15  1.593737e-10  1.354364e-09    failed    failed    0.1296930    0.2043058    0.    0.  7.568686e-10    failed    1.2000000  1.245661e-28    1.2000000  1.245661e-28    1.2000000 -8.139693e-23    1.2000000 -2.974112e-22    0. 1
  13.0000000  8.468686e-11  1.429050e-09 -1.870132e-15  1.593737e-10  1.354364e-09    failed    failed    0.1296930    0.1740100    0.    0.  7.568686e-10    failed    1.2000000  1.980488e-28    1.2000000  1.980488e-28    1.2000000 -1.368546e-21    1.2000000  3.912958e-21    0. 1
  14.0000000  8.468686e-11  1.429050e-09 -1.898156e-15  1.593737e-10  1.354364e-09    failed    failed    0.1296930    0.1546589    0.    0.  7.568686e-10    failed    1.2000000    0.    1.2000000    0.    1.2000000 -5.564849e-21    1.2000000  7.199531e-23    0. 1
  15.0000000  8.468686e-11  1.429050e-09 -1.912408e-15  1.593737e-10  1.354364e-09    failed    failed    0.1296930    0.1445521    0.    0.  7.568686e-10    failed    1.2000000  1.605810e-28    1.2000000  1.605810e-28    1.2000000 -2.898074e-22    1.2000000 -6.077888e-22    0. 1
  16.0000000  1.947606e-10  3.520451e-09 -1.808540e-15  3.795211e-10  3.335690e-09    failed    failed    0.1296930    0.2223750    0.    0.  1.857606e-09    failed    1.2000000  1.016976e-28    1.2000000  1.016976e-28    1.2000000  2.332918e-21    1.2000000  1.638126e-21    0. 1
  17.0000000  1.947606e-10  3.520451e-09 -1.832249e-15  3.795211e-10  3.335690e-09    failed    failed    0.1296930    0.2043082    0.    0.  1.857606e-09    failed    1.2000000  1.076296e-28    1.2000000  1.076296e-28    1.2000000 -1.842559e-21    1.2000000  1.892687e-21    0. 1
  18.0000000  1.947606e-10  3.520451e-09 -1.871989e-15  3.795211e-10  3.335690e-09    failed    failed    0.1296930    0.1740104    0.    0.  1.857606e-09    failed    1.2000000    0.    1.2000000    0.    1.2000000  3.252417e-21    1.2000000  1.808348e-21    0. 1
  19.0000000  1.947606e-10  3.520451e-09 -1.897556e-15  3.795211e-10  3.335690e-09    failed    failed    0.1296930    0.1546592    0.    0.  1.857606e-09    failed    1.2000000  1.311000e-28    1.2000000  1.311000e-28    1.2000000 -8.543685e-22    1.2000000 -2.410622e-22    0. 1
  20.0000000  1.947606e-10  3.520451e-09 -1.910976e-15  3.795211e-10  3.335690e-09    failed    failed    0.1296930    0.1445522    0.    0.  1.857606e-09    failed    1.2000000  1.348102e-28    1.2000000  1.348102e-28    1.2000000 -3.476675e-21    1.2000000 -1.675077e-21    0. 1
  21.0000000  3.662500e-10  6.778750e-09 -1.810809e-15  7.225000e-10  6.422500e-09    failed    failed    0.1296930    0.2223769    0.    0.  3.572500e-09    failed    1.2000000  1.105941e-28    1.2000000  1.105941e-28    1.2000000  1.322077e-21    1.2000000  2.802883e-22    0. 1
  22.0000000  3.662500e-10  6.778750e-09 -1.834515e-15  7.225000e-10  6.422500e-09    failed    failed    0.1296930    0.2043085    0.    0.  3.572500e-09    failed    1.2000000  1.726468e-28    1.2000000  1.726468e-28    1.2000000  1.534577e-21    1.2000000  1.098557e-21    0. 1
  23.0000000  3.662500e-10  6.778750e-09 -1.871084e-15  7.225000e-10  6.422500e-09    failed    failed    0.1296930    0.1740105    0.    0.  3.572500e-09    failed    1.2000000  2.280434e-28    1.2000000  2.280434e-28    1.2000000  2.323607e-21    1.2000000  7.044686e-22    0. 1
  24.0000000  3.662500e-10  6.778750e-09 -1.896729e-15  7.225000e-10  6.422500e-09    failed    failed    0.1296930    0.1546583    0.    0.  3.572500e-09    failed    1.2000000  1.320666e-28    1.2000000  1.320666e-28    1.2000000  3.602788e-21    1.2000000  2.290185e-21    0. 1
  25.0000000  3.662500e-10  6.778750e-09 -1.909854e-15  7.225000e-10  6.422500e-09    failed    failed    0.1296930    0.1445517    0.    0.  3.572500e-09    failed    1.2000000    0.    1.2000000    0.    1.2000000 -9.977318e-22    1.2000000  1.975793e-21    0. 1
