Using: /proj/cad/synopsys/synopsys_2018/hspice_vO-2018.09-2/hspice/linux64/hspice inv.pex.sp
 ****** HSPICE -- O-2018.09-2 linux64 (Oct 18 2018) ******                      
  Copyright (c) 1986 - 2024 by Synopsys, Inc. All Rights Reserved.              
  This software and the associated documentation are proprietary
  to Synopsys, Inc. This software may only be used in accordance
  with the terms and conditions of a written license agreement with
  Synopsys, Inc. All other use, reproduction, or distribution of
  this software is strictly prohibited.
  Input File: inv.pex.sp                                                        
  Command line options: /proj/cad/synopsys/synopsys_2018/hspice_vO-2018.09-2/hspice/linux64/hspice inv.pex.sp
 lic:  
 lic: FLEXlm: SDK_11.6.9.6 
 lic: USER:   sxv240035            HOSTNAME: engnx01a.utdallas.edu 
 lic: HOSTID: "70b5e8d0882a"       PID:      15511 
 lic: Using FLEXlm license file: 
 lic: 1700@engdmv.utdallas.edu 
 lic: Checkout 1 hspice 
 lic: License/Maintenance for hspice will expire on 30-jun-2025/2023.12 
 lic: 1(in_use)/50(total) FLOATING license(s) on SERVER 1700@engdmv.utdallas.edu 
 lic:   

 **error**  circuit 0 has no nodes


          ***** job aborted
1****** HSPICE -- O-2018.09-2 linux64 (Oct 18 2018) ******                      
 ******  
 * file: /home/eng/s/sxv240035/cad/gf65/inv_lvs/inv.pex.sp

 ****** job statistics summary tnom=  25.000 temp=  25.000 ******
  
 ******  Machine Information  ******
 CPU:
 model name	: AMD EPYC 7F32 8-Core Processor
 cpu MHz	: 3693.172
  
 OS:
 Linux version 3.10.0-1160.119.1.el7.x86_64 (mockbuild@x86-vm-39.brew-001.prod.iad2.dc.redhat.com) (gcc version 4.8.5 20150623 (Red Hat 4.8.5-44) (GCC) ) #1 SMP Tue May 14 11:55:25 EDT 2024


  ******  HSPICE Threads Information  ******

  Command Line Threads Count :     1
  Available CPU Count        :    32
  Actual Threads Count       :     1


  ******  Circuit Statistics  ******
  # nodes       =       1 # elements   =       0
  # resistors   =       0 # capacitors =       0 # inductors   =       0
  # mutual_inds =       0 # vccs       =       0 # vcvs        =       0
  # cccs        =       0 # ccvs       =       0 # volt_srcs   =       0
  # curr_srcs   =       0 # diodes     =       0 # bjts        =       0
  # jfets       =       0 # mosfets    =       0 # U elements  =       0
  # T elements  =       0 # W elements =       0 # B elements  =       0
  # S elements  =       0 # P elements =       0 # va device   =       0
  # vector_srcs =       0 # N elements =       0


  ******  Runtime Statistics (seconds)  ******

  analysis           time    # points   tot. iter  conv.iter
  op point           0.00           1           0
  readin             0.01
  errchk             0.00
  setup              0.00
  output             0.00


           peak memory used        301.65 megabytes
           total cpu time            0.01 seconds
           total elapsed time        0.02 seconds
           job started at     13:09:36 10/10/2024
           job ended   at     13:09:36 10/10/2024


 lic: Release hspice token(s) 
 lic: total license checkout elapse time:        0.01(s)
