$DATA1 SOURCE='HSPICE' VERSION='O-2018.09-2 linux64' PARAM_COUNT=1
$OPTION MEASFORM=1
.TITLE '.title delay__in__hl__out__lh__acq_1'
index cin__in__hl_trig cin__in__hl_targ cin__in__hl_q tin__in__hl_trig tin__in__hl_targ tout__out__lh_trig tout__out__lh_targ cap_energy__out__lh_vp0 cap_energy__out__lh_vp1 cap_energy__out__lh_vn0 cap_energy__out__lh_vn1 delay__in__hl__out__lh_trig delay__in__hl__out__lh_targ energy1__in__hl__out__lh__vdd_vdd_harness_v energy1__in__hl__out__lh__vdd_vdd_harness_q energy__in__hl__out__lh_vdd_harness_v energy__in__hl__out__lh_vdd_harness_q leakage_power1__vdd_vdd_harness_v leakage_power1__vdd_vdd_harness_i leakage_power2__vdd_vdd_harness_v leakage_power2__vdd_vdd_harness_i temper alter#
   1.0000000  1.062500e-11  2.187500e-11  1.103504e-15  1.125000e-11  2.125000e-11    failed    failed    0.1637090  5.548148e-02    0.    0.  1.625000e-11    failed    1.2000000    0.    1.2000000    0.    1.2000000  1.688145e-21    1.2000000 -2.076463e-21    0. 1
   2.0000000  1.062500e-11  2.187500e-11  1.122929e-15  1.125000e-11  2.125000e-11    failed    failed    0.1637090  8.294312e-02    0.    0.  1.625000e-11    failed    1.2000000  2.381280e-28    1.2000000  2.381280e-28    1.2000000  8.379800e-22    1.2000000 -1.588340e-21    0. 1
   3.0000000  1.062500e-11  2.187500e-11  1.149958e-15  1.125000e-11  2.125000e-11    failed    failed    0.1637090    0.1209587    0.    0.  1.625000e-11    failed    1.2000000    0.    1.2000000    0.    1.2000000  3.590212e-21    1.2000000  2.082621e-21    0. 1
   4.0000000  1.062500e-11  2.187500e-11  1.163765e-15  1.125000e-11  2.125000e-11    failed    failed    0.1637090    0.1411779    0.    0.  1.625000e-11    failed    1.2000000  1.327295e-28    1.2000000  1.327295e-28    1.2000000  1.931392e-22    1.2000000 -1.688738e-22    0. 1
   5.0000000  1.062500e-11  2.187500e-11  1.170575e-15  1.125000e-11  2.125000e-11    failed    failed    0.1637090    0.1507323    0.    0.  1.625000e-11    failed    1.2000000    0.    1.2000000    0.    1.2000000  1.989244e-21    1.2000000  2.959795e-22    0. 1
   6.0000000  2.704590e-11  3.338721e-10  1.121680e-15  4.409180e-11  3.168262e-10    failed    failed    0.1637090  5.526725e-02    0.    0.  1.804590e-10    failed    1.2000000    0.    1.2000000    0.    1.2000000  3.192269e-21    1.2000000 -6.886773e-22    0. 1
   7.0000000  2.704590e-11  3.338721e-10  1.135909e-15  4.409180e-11  3.168262e-10    failed    failed    0.1637090  8.273838e-02    0.    0.  1.804590e-10    failed    1.2000000    0.    1.2000000    0.    1.2000000 -4.031346e-22    1.2000000 -4.841632e-22    0. 1
   8.0000000  2.704590e-11  3.338721e-10  1.165384e-15  4.409180e-11  3.168262e-10    failed    failed    0.1637090    0.1208148    0.    0.  1.804590e-10    failed    1.2000000    0.    1.2000000    0.    1.2000000 -4.853115e-23    1.2000000 -1.518965e-21    0. 1
   9.0000000  2.704590e-11  3.338721e-10  1.179976e-15  4.409180e-11  3.168262e-10    failed    failed    0.1637090    0.1410894    0.    0.  1.804590e-10    failed    1.2000000    0.    1.2000000    0.    1.2000000 -1.627168e-21    1.2000000 -1.761489e-21    0. 1
  10.0000000  2.704590e-11  3.338721e-10  1.186820e-15  4.409180e-11  3.168262e-10    failed    failed    0.1637090    0.1506778    0.    0.  1.804590e-10    failed    1.2000000    0.    1.2000000    0.    1.2000000  2.643397e-21    1.2000000 -1.638997e-21    0. 1
  11.0000000  8.468686e-11  1.429050e-09  1.122267e-15  1.593737e-10  1.354364e-09    failed    failed    0.1637090  5.503524e-02    0.    0.  7.568686e-10    failed    1.2000000    0.    1.2000000    0.    1.2000000 -2.932405e-21    1.2000000 -2.747842e-21    0. 1
  12.0000000  8.468686e-11  1.429050e-09  1.141131e-15  1.593737e-10  1.354364e-09    failed    failed    0.1637090  8.252962e-02    0.    0.  7.568686e-10    failed    1.2000000    0.    1.2000000    0.    1.2000000 -1.288800e-21    1.2000000 -1.642495e-21    0. 1
  13.0000000  8.468686e-11  1.429050e-09  1.169738e-15  1.593737e-10  1.354364e-09    failed    failed    0.1637090    0.1206749    0.    0.  7.568686e-10    failed    1.2000000    0.    1.2000000    0.    1.2000000  4.879110e-21    1.2000000 -1.572412e-21    0. 1
  14.0000000  8.468686e-11  1.429050e-09  1.184368e-15  1.593737e-10  1.354364e-09    failed    failed    0.1637090    0.1410154    0.    0.  7.568686e-10    failed    1.2000000    0.    1.2000000    0.    1.2000000 -1.074885e-21    1.2000000 -1.579661e-21    0. 1
  15.0000000  8.468686e-11  1.429050e-09  1.189337e-15  1.593737e-10  1.354364e-09    failed    failed    0.1637090    0.1506335    0.    0.  7.568686e-10    failed    1.2000000  1.993816e-28    1.2000000  1.993816e-28    1.2000000 -6.948962e-22    1.2000000 -1.200177e-21    0. 1
  16.0000000  1.947606e-10  3.520451e-09  1.125303e-15  3.795211e-10  3.335690e-09    failed    failed    0.1637090  5.484655e-02    0.    0.  1.857606e-09    failed    1.2000000    0.    1.2000000    0.    1.2000000 -1.274055e-21    1.2000000 -2.025640e-21    0. 1
  17.0000000  1.947606e-10  3.520451e-09  1.145187e-15  3.795211e-10  3.335690e-09    failed    failed    0.1637090  8.237572e-02    0.    0.  1.857606e-09    failed    1.2000000    0.    1.2000000    0.    1.2000000 -3.408780e-21    1.2000000 -3.323794e-21    0. 1
  18.0000000  1.947606e-10  3.520451e-09  1.172266e-15  3.795211e-10  3.335690e-09    failed    failed    0.1637090    0.1205909    0.    0.  1.857606e-09    failed    1.2000000    0.    1.2000000    0.    1.2000000  6.560196e-21    1.2000000 -2.185253e-21    0. 1
  19.0000000  1.947606e-10  3.520451e-09  1.186657e-15  3.795211e-10  3.335690e-09    failed    failed    0.1637090    0.1409669    0.    0.  1.857606e-09    failed    1.2000000    0.    1.2000000    0.    1.2000000 -8.606804e-22    1.2000000 -1.705062e-21    0. 1
  20.0000000  1.947606e-10  3.520451e-09  1.193443e-15  3.795211e-10  3.335690e-09    failed    failed    0.1637090    0.1506068    0.    0.  1.857606e-09    failed    1.2000000    0.    1.2000000    0.    1.2000000  7.635116e-21    1.2000000 -2.166330e-21    0. 1
  21.0000000  3.662500e-10  6.778750e-09  1.126249e-15  7.225000e-10  6.422500e-09    failed    failed    0.1637090  5.469443e-02    0.    0.  3.572500e-09    failed    1.2000000    0.    1.2000000    0.    1.2000000 -2.706412e-21    1.2000000 -2.672051e-21    0. 1
  22.0000000  3.662500e-10  6.778750e-09  1.145768e-15  7.225000e-10  6.422500e-09    failed    failed    0.1637090  8.225682e-02    0.    0.  3.572500e-09    failed    1.2000000    0.    1.2000000    0.    1.2000000  4.216869e-22    1.2000000 -2.679348e-21    0. 1
  23.0000000  3.662500e-10  6.778750e-09  1.173549e-15  7.225000e-10  6.422500e-09    failed    failed    0.1637090    0.1205293    0.    0.  3.572500e-09    failed    1.2000000    0.    1.2000000    0.    1.2000000 -1.923431e-21    1.2000000 -2.451974e-21    0. 1
  24.0000000  3.662500e-10  6.778750e-09  1.188325e-15  7.225000e-10  6.422500e-09    failed    failed    0.1637090    0.1409369    0.    0.  3.572500e-09    failed    1.2000000    0.    1.2000000    0.    1.2000000  1.075932e-21    1.2000000 -1.659726e-22    0. 1
  25.0000000  3.662500e-10  6.778750e-09  1.195319e-15  7.225000e-10  6.422500e-09    failed    failed    0.1637090    0.1505906    0.    0.  3.572500e-09    failed    1.2000000    0.    1.2000000    0.    1.2000000 -1.097553e-21    1.2000000 -1.463526e-21    0. 1
