Using: /proj/cad/synopsys/synopsys_2018/hspice_vO-2018.09-2/hspice/linux64/hspice dff_hspice2.sp
 ****** HSPICE -- O-2018.09-2 linux64 (Oct 18 2018) ******                      
  Copyright (c) 1986 - 2024 by Synopsys, Inc. All Rights Reserved.              
  This software and the associated documentation are proprietary
  to Synopsys, Inc. This software may only be used in accordance
  with the terms and conditions of a written license agreement with
  Synopsys, Inc. All other use, reproduction, or distribution of
  this software is strictly prohibited.
  Input File: dff_hspice2.sp                                                    
  Command line options: /proj/cad/synopsys/synopsys_2018/hspice_vO-2018.09-2/hspice/linux64/hspice dff_hspice2.sp
 lic:  
 lic: FLEXlm: SDK_11.6.9.6 
 lic: USER:   sxv240035            HOSTNAME: engnx01a.utdallas.edu 
 lic: HOSTID: "b02628e852cf"       PID:      26390 
 lic: Using FLEXlm license file: 
 lic: 1700@engdmv.utdallas.edu 
 lic: Checkout 1 hspice 
 lic: License/Maintenance for hspice will expire on 30-jun-2025/2023.12 
 lic: 1(in_use)/50(total) FLOATING license(s) on SERVER 1700@engdmv.utdallas.edu 
 lic:   
  **warning** (dff_hspice2.sp:17) the element "0.6v" declared without nodes and value. Please enter valid nodes with corresponding value.
  **warning** (dff_hspice2.sp:19) the element "0.6v" declared without nodes and value. Please enter valid nodes with corresponding value.
  **warning** (dff_hspice2.sp:21) the element "0.6v" declared without nodes and value. Please enter valid nodes with corresponding value.
  **warning** (dff_hspice2.sp:23) the element "0.6v" declared without nodes and value. Please enter valid nodes with corresponding value.
  **warning** (dff_hspice2.sp:25) the element "0.6v" declared without nodes and value. Please enter valid nodes with corresponding value.
  **warning** (dff_hspice2.sp:27) the element "0.6v" declared without nodes and value. Please enter valid nodes with corresponding value.
  **warning** (dff_hspice2.sp:20) measure result trise redefined, ignored the previous.
  **warning** (dff_hspice2.sp:22) measure result tfall redefined, ignored the previous.
  **warning** (dff_hspice2.sp:24) measure result trise redefined, ignored the previous.
  **warning** (dff_hspice2.sp:26) measure result tfall redefined, ignored the previous.
  **warning** (dff_hspice2.sp:38) measure result t1 redefined, ignored the previous.
  **warning** (dff_hspice2.sp:39) measure result t1 redefined, ignored the previous.
  **warning** (dff_hspice2.sp:42) measure result t3 redefined, ignored the previous.
  **warning** (dff_hspice2.sp:43) measure result t3 redefined, ignored the previous.

*pvaI* current limit stacksize=8388608, set new limit stacksize=62914560
 --------------------------------------------------------
|                                                        |
|             Synopsys Unified Verilog-A (pVA)           |
|                                                        |
|           Machine Name: engnx01a.utdallas.edu          |
| Copyright (c) 2015 Synopsys Inc., All Rights Reserved. |
|                                                        |
 --------------------------------------------------------

libepva built by pvamgr synmake_pva_build  on Thu Sep 27 15:54:02 PDT 2018 - p4:5232807
HSP_HOME:   /proj/cad/synopsys/synopsys_2018/hspice_vO-2018.09-2/hspice
HSP_ARCH:   linux64
HSP_GCC :   /proj/cad/synopsys/synopsys_2018/hspice_vO-2018.09-2/hspice/GNU/linux64/gcc/bin/gcc -m64 
HSP_GCC_VER:   6.2.0
Working-Dir: /home/eng/s/sxv240035/cad/gf65/lib_cell/dff/HSPICE
Args:        -p hsp -t spi -f dff_hspice2.pvadir/pvaHDL.lis -o dff_hspice2.pvadir 

### optimize mode ###

Begin of pVA compiling on Thu Nov 14 23:12:38 2024	GTM/In-use: 0.6250/0.5384 MB

Parsing '/proj/cad/library/mosis/GF65_LPe/cmos10lpe_CDS_oa_dl064_11_20160415/models/YI-SM00030/Hspice/models/./ncap.va'
Parsing include file '/proj/cad/synopsys/synopsys_2018/hspice_vO-2018.09-2/hspice/include/constants.vams'
Parsing include file '/proj/cad/synopsys/synopsys_2018/hspice_vO-2018.09-2/hspice/include/disciplines.vams'
Parsing '/proj/cad/library/mosis/GF65_LPe/cmos10lpe_CDS_oa_dl064_11_20160415/models/YI-SM00030/Hspice/models/./dgncap.va'
Parsing include file '/proj/cad/synopsys/synopsys_2018/hspice_vO-2018.09-2/hspice/include/constants.vams'
Parsing include file '/proj/cad/synopsys/synopsys_2018/hspice_vO-2018.09-2/hspice/include/disciplines.vams'
Parsing '/proj/cad/library/mosis/GF65_LPe/cmos10lpe_CDS_oa_dl064_11_20160415/models/YI-SM00030/Hspice/models/./pcap.va'
Parsing include file '/proj/cad/synopsys/synopsys_2018/hspice_vO-2018.09-2/hspice/include/constants.vams'
Parsing include file '/proj/cad/synopsys/synopsys_2018/hspice_vO-2018.09-2/hspice/include/disciplines.vams'
Parsing '/proj/cad/library/mosis/GF65_LPe/cmos10lpe_CDS_oa_dl064_11_20160415/models/YI-SM00030/Hspice/models/./hacap.va'
Parsing include file '/proj/cad/synopsys/synopsys_2018/hspice_vO-2018.09-2/hspice/include/constants.vams'
Parsing include file '/proj/cad/synopsys/synopsys_2018/hspice_vO-2018.09-2/hspice/include/disciplines.vams'
Parsing '/proj/cad/library/mosis/GF65_LPe/cmos10lpe_CDS_oa_dl064_11_20160415/models/YI-SM00030/Hspice/models/./esd_modules.va'
Parsing include file '/proj/cad/synopsys/synopsys_2018/hspice_vO-2018.09-2/hspice/include/constants.vams'
Parsing include file '/proj/cad/synopsys/synopsys_2018/hspice_vO-2018.09-2/hspice/include/disciplines.vams'
Parsing '/proj/cad/library/mosis/GF65_LPe/cmos10lpe_CDS_oa_dl064_11_20160415/models/YI-SM00030/Hspice/models/single_rcline.va'
Parsing include file '/proj/cad/synopsys/synopsys_2018/hspice_vO-2018.09-2/hspice/include/constants.vams'
Parsing include file '/proj/cad/synopsys/synopsys_2018/hspice_vO-2018.09-2/hspice/include/disciplines.vams'
Parsing '/proj/cad/library/mosis/GF65_LPe/cmos10lpe_CDS_oa_dl064_11_20160415/models/YI-SM00030/Hspice/models/single_cpw.va'
Parsing include file '/proj/cad/synopsys/synopsys_2018/hspice_vO-2018.09-2/hspice/include/constants.vams'
Parsing include file '/proj/cad/synopsys/synopsys_2018/hspice_vO-2018.09-2/hspice/include/disciplines.vams'
Parsing '/proj/cad/library/mosis/GF65_LPe/cmos10lpe_CDS_oa_dl064_11_20160415/models/YI-SM00030/Hspice/models/coupled_rcline.va'
Parsing include file '/proj/cad/synopsys/synopsys_2018/hspice_vO-2018.09-2/hspice/include/constants.vams'
Parsing include file '/proj/cad/synopsys/synopsys_2018/hspice_vO-2018.09-2/hspice/include/disciplines.vams'
Parsing '/proj/cad/library/mosis/GF65_LPe/cmos10lpe_CDS_oa_dl064_11_20160415/models/YI-SM00030/Hspice/models/coupled_cpw.va'
Parsing include file '/proj/cad/synopsys/synopsys_2018/hspice_vO-2018.09-2/hspice/include/constants.vams'
Parsing include file '/proj/cad/synopsys/synopsys_2018/hspice_vO-2018.09-2/hspice/include/disciplines.vams'

End of pVA compiling on Thu Nov 14 23:12:38 2024	GTM/In-use: 33.6250/33.4631 MB


End of build pVA DB on Thu Nov 14 23:12:38 2024	GTM/In-use: 46.1250/46.0357 MB

*pvaI* Module (mosvarcap): 2 unexpanded port, 0 init, 85 behav, 5 contrib, 53/76 expr(s)
*pvaI*        No DIS, 0/0 afCount, 0 MT, dlg, IO(0/0/0/0)
*pvaI*        0 gmdIsThreadSafe 
*pvaI*        0 const-G and 0 const-C, No switchBranch, 22 bypassOpt, 0 bus2scalar, 0 vwb
*pvaI*        set_va_exp = 80 [80.0, 704.0] set by default
*pvaW*        variable 'fs_init' initialized but not used in RHS, deleted (/proj/cad/library/mosis/GF65_LPe/cmos10lpe_CDS_oa_dl064_11_20160415/models/YI-SM00030/Hspice/models/./ncap.va:83)
*pvaW*                   To relax this rule, use 'setenv PVA_KEEP_VARS 1' to keep variables for probing.
*pvaW*        variable 'fp_init' initialized but not used in RHS, deleted (/proj/cad/library/mosis/GF65_LPe/cmos10lpe_CDS_oa_dl064_11_20160415/models/YI-SM00030/Hspice/models/./ncap.va:159)
*pvaW*        variable 'ilast' initialized but not used in RHS, deleted (/proj/cad/library/mosis/GF65_LPe/cmos10lpe_CDS_oa_dl064_11_20160415/models/YI-SM00030/Hspice/models/./ncap.va:149)
*pvaW*        variable 'jlast' initialized but not used in RHS, deleted (/proj/cad/library/mosis/GF65_LPe/cmos10lpe_CDS_oa_dl064_11_20160415/models/YI-SM00030/Hspice/models/./ncap.va:204)
*pvaI*        generated 3 flow node(s) during compilation.
*pvaI* Module (dgmosvarcap): 2 unexpanded port, 0 init, 84 behav, 4 contrib, 53/76 expr(s)
*pvaI*        No DIS, 0/0 afCount, 0 MT, dlg, IO(0/0/0/0)
*pvaI*        0 gmdIsThreadSafe 
*pvaI*        0 const-G and 0 const-C, No switchBranch, 22 bypassOpt, 0 bus2scalar, 0 vwb
*pvaI*        set_va_exp = 80 [80.0, 704.0] set by default
*pvaW*        variable 'fs_init' initialized but not used in RHS, deleted (/proj/cad/library/mosis/GF65_LPe/cmos10lpe_CDS_oa_dl064_11_20160415/models/YI-SM00030/Hspice/models/./dgncap.va:83)
*pvaW*        variable 'fp_init' initialized but not used in RHS, deleted (/proj/cad/library/mosis/GF65_LPe/cmos10lpe_CDS_oa_dl064_11_20160415/models/YI-SM00030/Hspice/models/./dgncap.va:159)
*pvaW*        variable 'ilast' initialized but not used in RHS, deleted (/proj/cad/library/mosis/GF65_LPe/cmos10lpe_CDS_oa_dl064_11_20160415/models/YI-SM00030/Hspice/models/./dgncap.va:149)
*pvaW*        variable 'jlast' initialized but not used in RHS, deleted (/proj/cad/library/mosis/GF65_LPe/cmos10lpe_CDS_oa_dl064_11_20160415/models/YI-SM00030/Hspice/models/./dgncap.va:204)
*pvaW*        variable 'leak' initialized but not used in RHS, deleted (/proj/cad/library/mosis/GF65_LPe/cmos10lpe_CDS_oa_dl064_11_20160415/models/YI-SM00030/Hspice/models/./dgncap.va:74)
*pvaI*        generated 3 flow node(s) during compilation.
*pvaI* Module (veripcap): 2 unexpanded port, 0 init, 86 behav, 5 contrib, 53/77 expr(s)
*pvaI*        No DIS, 0/0 afCount, 0 MT, dlg, IO(0/0/0/0)
*pvaI*        0 gmdIsThreadSafe 
*pvaI*        0 const-G and 0 const-C, No switchBranch, 22 bypassOpt, 0 bus2scalar, 0 vwb
*pvaI*        set_va_exp = 80 [80.0, 704.0] set by default
*pvaW*        variable 'fs_init' initialized but not used in RHS, deleted (/proj/cad/library/mosis/GF65_LPe/cmos10lpe_CDS_oa_dl064_11_20160415/models/YI-SM00030/Hspice/models/./pcap.va:87)
*pvaW*        variable 'fp_init' initialized but not used in RHS, deleted (/proj/cad/library/mosis/GF65_LPe/cmos10lpe_CDS_oa_dl064_11_20160415/models/YI-SM00030/Hspice/models/./pcap.va:163)
*pvaW*        variable 'ilast' initialized but not used in RHS, deleted (/proj/cad/library/mosis/GF65_LPe/cmos10lpe_CDS_oa_dl064_11_20160415/models/YI-SM00030/Hspice/models/./pcap.va:153)
*pvaW*        variable 'jlast' initialized but not used in RHS, deleted (/proj/cad/library/mosis/GF65_LPe/cmos10lpe_CDS_oa_dl064_11_20160415/models/YI-SM00030/Hspice/models/./pcap.va:208)
*pvaI*        generated 3 flow node(s) during compilation.
*pvaI* Module (havarcap): 2 unexpanded port, 0 init, 41 behav, 1 contrib, 28/38 expr(s)
*pvaI*        Has DIS(DT), 0/0 afCount, 0 MT, dlg, IO(0/0/1/0)
*pvaI*        0 gmdIsThreadSafe (DT)
*pvaI*        1 const-G and 0 const-C, No switchBranch, 22 bypassOpt, 0 bus2scalar, 0 vwb
*pvaI*        set_va_exp = 80 [80.0, 704.0] set by default
*pvaI*        generated 0 flow node(s) during compilation.
*pvaI* Module (It2_monitor): 2 unexpanded port, 0 init, 5 behav, 1 contrib, 22/1 expr(s)
*pvaI*        Has DIS(SB), 0/0 afCount, 0 MT, dlg, IO(0/1/1/1)
*pvaI*        0 gmdIsThreadSafe (SB)
*pvaI*        0 const-G and 0 const-C, Has switchBranch, 22 bypassOpt, 0 bus2scalar, 0 vwb
*pvaI*        set_va_exp = 80 [80.0, 704.0] set by default
*pvaI*        generated 0 flow node(s) during compilation.
*pvaI* Module (single_rcline): 3 unexpanded port, 0 init, 1473 behav, 5 contrib, 47/1727 expr(s)
*pvaI* p.89 (LRM 2.2) parameter 'th' used inside analog function (/proj/cad/library/mosis/GF65_LPe/cmos10lpe_CDS_oa_dl064_11_20160415/models/YI-SM00030/Hspice/models/single_rcline.va:1044)
*pvaI*        Has DIS(DT ST), 3/11 afCount, 0 MT, dlg, IO(0/0/1/0)
*pvaI*        0 gmdIsThreadSafe (DT ST)
*pvaI*        3 const-G and 0 const-C, No switchBranch, 22 bypassOpt, 0 bus2scalar, 0 vwb
*pvaI*        set_va_exp = 80 [80.0, 704.0] set by default
*pvaI*        generated 0 flow node(s) during compilation.
*pvaI* Module (single_cpw): 3 unexpanded port, 0 init, 1795 behav, 40 contrib, 72/2265 expr(s)
*pvaI* p.89 (LRM 2.2) parameter 'th' used inside analog function (/proj/cad/library/mosis/GF65_LPe/cmos10lpe_CDS_oa_dl064_11_20160415/models/YI-SM00030/Hspice/models/single_cpw.va:1130)
*pvaI*        Has DIS(DT IT ST), 17/40 afCount, 0 MT, dlg, IO(0/0/1/0)
*pvaI*        0 gmdIsThreadSafe (DT IT ST)
*pvaI*        0 const-G and 0 const-C, No switchBranch, 0 bypassOpt, 0 bus2scalar, 0 vwb
*pvaI*        set_va_exp = 80 [80.0, 704.0] set by default
*pvaW*        variable 'Coxo_None' declared but not used in RHS, deleted (/proj/cad/library/mosis/GF65_LPe/cmos10lpe_CDS_oa_dl064_11_20160415/models/YI-SM00030/Hspice/models/single_cpw.va:178)
*pvaI*        generated 3 flow node(s) during compilation.
*pvaI* Module (coupled_rcline): 5 unexpanded port, 0 init, 1778 behav, 13 contrib, 65/2017 expr(s)
*pvaI* p.89 (LRM 2.2) parameter 'th' used inside analog function (/proj/cad/library/mosis/GF65_LPe/cmos10lpe_CDS_oa_dl064_11_20160415/models/YI-SM00030/Hspice/models/coupled_rcline.va:1094)
*pvaI*        Has DIS(ST), 5/10 afCount, 0 MT, dlg, IO(0/0/1/0)
*pvaI*        0 gmdIsThreadSafe (ST)
*pvaI*        0 const-G and 0 const-C, No switchBranch, 22 bypassOpt, 0 bus2scalar, 0 vwb
*pvaI*        set_va_exp = 80 [80.0, 704.0] set by default
*pvaI*        generated 0 flow node(s) during compilation.
*pvaI* Module (coupled_cpw): 5 unexpanded port, 0 init, 2364 behav, 90 contrib, 70/2827 expr(s)
*pvaI* p.89 (LRM 2.2) parameter 'th' used inside analog function (/proj/cad/library/mosis/GF65_LPe/cmos10lpe_CDS_oa_dl064_11_20160415/models/YI-SM00030/Hspice/models/coupled_cpw.va:1205)
*pvaI* p.89 (LRM 2.2) parameter 'd' used inside analog function (/proj/cad/library/mosis/GF65_LPe/cmos10lpe_CDS_oa_dl064_11_20160415/models/YI-SM00030/Hspice/models/coupled_cpw.va:1918)
*pvaI*        Has DIS(DT IT ST), 14/31 afCount, 0 MT, dlg, IO(0/0/1/0)
*pvaI*        0 gmdIsThreadSafe (DT IT ST)
*pvaI*        0 const-G and 0 const-C, No switchBranch, 0 bypassOpt, 0 bus2scalar, 0 vwb
*pvaI*        set_va_exp = 80 [80.0, 704.0] set by default
*pvaW*        variable 'M0' initialized but not used in RHS, deleted (/proj/cad/library/mosis/GF65_LPe/cmos10lpe_CDS_oa_dl064_11_20160415/models/YI-SM00030/Hspice/models/coupled_cpw.va:2344)
*pvaI*        generated 6 flow node(s) during compilation.

End of pVA genC on Thu Nov 14 23:12:44 2024	GTM/In-use: 61.0000/60.2322 MB

*pvaI* #### Total 4247 line-size(s), 463/9104 expr(s), 164 contr(s), 0 init(s), 7711 behav(s), 26 port(s)

dff_hspice2.pvadir/pvaRTL_linux64.so is reused

End of pVA elaboration on Thu Nov 14 23:12:44 2024	GTM/In-use: 61.0000/59.8564 MB

  **warning** (/proj/cad/library/mosis/GF65_LPe/cmos10lpe_CDS_oa_dl064_11_20160415/models/YI-SM00030/Hspice/models/./nfet.inc:222) Model nfet device geometries will not be checked against the limits set by lmin, lmax, wmin and wmax. To enable this check, add a period(.) to the model name(i.e. enable model selector).

 **info** IF-.ELSE condition won’t be re-calculated for each data/parameter sweep. If .data/sweep parameter assignments are used in .if condition, please use .alter as a workaround.

  **warning** (dff.pex.sp:7) Global net name, "gnd", in subckt pin list. The pin will be connected to the local net. Recommend to not use global net names in subckt pin lists.
 Loading pVA library dff_hspice2.pvadir/pvaRTL_linux64.so...
1****** HSPICE -- O-2018.09-2 linux64 (Oct 18 2018) ******                      
 ******  
 $example hspice setup file

 ****** circuit name directory
 circuit number to circuit name directory
   number circuitname                     definition         multiplier
        0 main circuit
        1 xi.                             dff                1.00 
        2 xi.xd0_noxref.                  diodenwx           1.00 
        3 xi.xmmn4.                       nfet               1.00 
        4 xi.xmmn3.                       nfet               1.00 
        5 xi.xmmn7.                       nfet               1.00 
        6 xi.xmmn8.                       nfet               1.00 
        7 xi.xmmp6.                       nfet               1.00 
        8 xi.xmmp5.                       nfet               1.00 
        9 xi.xmmn2.                       nfet               1.00 
       10 xi.xmmn1.                       nfet               1.00 
       11 xi.xmmn15.                      nfet               1.00 
       12 xi.xmmn10.                      nfet               1.00 
       13 xi.xmmn9.                       nfet               1.00 
       14 xi.xmmn13.                      nfet               1.00 
       15 xi.xmmn14.                      nfet               1.00 
       16 xi.xmmn12.                      nfet               1.00 
       17 xi.xmmn11.                      nfet               1.00 
       18 xi.xmmp4.                       pfet               1.00 
       19 xi.xmmp3.                       pfet               1.00 
       20 xi.xmmp7.                       pfet               1.00 
       21 xi.xmmp8.                       pfet               1.00 
       22 xi.xmmn6.                       pfet               1.00 
       23 xi.xmmn5.                       pfet               1.00 
       24 xi.xmmp2.                       pfet               1.00 
       25 xi.xmmp1.                       pfet               1.00 
       26 xi.xmmp15.                      pfet               1.00 
       27 xi.xmmp10.                      pfet               1.00 
       28 xi.xmmp9.                       pfet               1.00 
       29 xi.xmmp13.                      pfet               1.00 
       30 xi.xmmp14.                      pfet               1.00 
       31 xi.xmmp12.                      pfet               1.00 
       32 xi.xmmp11.                      pfet               1.00 
       33 xi.x_pm_dff%gnd!.               pm_dff%gnd!        1.00 
       34 xi.x_pm_dff%a.                  pm_dff%a           1.00 
       35 xi.x_pm_dff%b.                  pm_dff%b           1.00 
       36 xi.x_pm_dff%!clk.               pm_dff%!clk        1.00 
       37 xi.x_pm_dff%clk.                pm_dff%clk         1.00 
       38 xi.x_pm_dff%q.                  pm_dff%q           1.00 
       39 xi.x_pm_dff%c.                  pm_dff%c           1.00 
       40 xi.x_pm_dff%e.                  pm_dff%e           1.00 
       41 xi.x_pm_dff%vdd!.               pm_dff%vdd!        1.00 
       42 xi.x_pm_dff%d.                  pm_dff%d           1.00 
       43 xi.x_pm_dff%r.                  pm_dff%r           1.00 
 ******  
 $example hspice setup file

 ****** diode model parameters tnom=  25.000 temp=  25.000 ******
 ********************************************************
 *** common model parameters model name:   2:nwelldio****
 ********************************************************

     names  values   units     names  values   units     names  values   units
     -----  ------   -----     -----  ------   -----     -----  ------   -----

   1*** dc breakdown parameters ***
       vb=  10.00  volts        ibv=   1.00m amps   

   2*** parasitic resistance parameters ***
       rs=  20.00p ohms   

   3*** capacitance parameters ***
       fc= 500.00m              fcs= 500.00m                m= 281.10m        
     mjsw= 263.40m               pb= 433.50m volts        php= 884.40m volts  
       tt=   0.    secs         cjo= 125.00u f/area       cjp= 800.00p f/pj   

   4*** temperature effect parameters ***
     tlev=   1.00             tlevc=   1.00               tcv=   0.    /deg   
      trs=   0.    /deg         cta=   0.    /deg         ctp=   0.    /deg   
      xti=   1.29            xtitun=   3.00               keg=   1.00         
       eg=   1.26  ev          gap1= 702.00u  ev/deg     gap2=   1.11k  deg   
     ttt1=   0.    /deg        ttt2=   0.    /deg2        tm1=   0.    /deg   
      tm2=   0.    /deg2        tpb=   0.    v/deg k     tphp=   0.    v/deg k
     tref=  25.00   deg c 

   5*** noise parameters ***
       kf=   0.                  af=   1.00         

   ***  level   1  model parameters  ***

    level=   1.00                is=   1.08u amps         jsw=   1.22p amps   
        n=   1.03               nbv=   1.03                ik=   0.    amp    
     area=   1.00                pj=   0.                 ikr=   0.    amp    
    expli=   0.    amps      explir=   0.    amps        jtun=   0.    amps   
   jtunsw=   0.    amps        ntun=  30.00         
  
 ******  
 $example hspice setup file

 ****** mos   model parameters tnom=  25.000 temp=  25.000 ******
 Model file: /proj/cad/library/mosis/GF65_LPe/cmos10lpe_CDS_oa_dl064_11_20160415/models/YI-SM00030/Hspice/models/./nfet.inc
 Model line:          222
 Model Name: nfet  
 BSIM4 Model (Level 54)
    MOBMOD = 0
    BINUNIT = 1
    PARAMCHK = 0
    CAPMOD = 2
    DIOMOD = 1
    RDSMOD = 0
    TRNQSMOD = 0
    ACNQSMOD = 0
    RBODYMOD = 0
    RGATEMOD = 0
    PERMOD = 1
    GEOMOD = 0
    RGEOMOD = 0
    FNOIMOD = 1
    TNOIMOD = 0
    IGCMOD = 1
    IGBMOD = 1
    STIMOD = 1
    VBFWDMOD = 0
    VERSION =    4.5 
    TOXREF = 2.51e-09 
    TOXE = 2.6e-09 
    TOXP = 2.35e-09 
    TOXM = 2.51e-09 
    DTOX =      0 
    EPSROX =    3.9 
    CDSC =      0 
    CDSCB =      0 
    CDSCD =      0 
    CIT =      0 
    NFACTOR =  1.496 
    XJ =  1e-07 
    VSAT = 1.67e+05 
    A0 =  1.045 
    AGS =  0.589 
    A1 =      0 
    A2 =  0.598 
    AT = 0.001604 
    KETA = -0.05307 
    NSUB =  6e+16 
    NDEP = 3.181e+17 
    NSD =  1e+20 
    NGATE =  1e+21 
    GAMMA1 =      0 
    GAMMA2 =      0 
    VBX =      0 
    VBM =     -3 
    XT = 1.55e-07 
    K1 =  0.435 
    KT1 = -0.185 
    KT1L = -6e-10 
    KT2 =      0 
    K2 = -0.06627 
    K3 = -0.05758 
    K3B =      0 
    LPE0 = 4.737e-08 
    LPEB =      0 
    DVTP0 = 3.078e-07 
    DVTP1 =      0 
    W0 =  1e-09 
    DVT0 =   7.55 
    DVT1 = 0.5562 
    DVT2 = 0.04519 
    DVT0W =      0 
    DVT1W = 4.278e+05 
    DVT2W =  0.275 
    DROUT = 0.9416 
    DSUB = 0.3332 
    VTH0 = 0.4532 
    EU =   1.67 
    UA = 6.658e-11 
    UA1 =      0 
    UB = 1.717e-18 
    UB1 =      0 
    UC = 9.303e-11 
    UC1 =      0 
    U0 =    412 
    UTE = -0.9506 
    VOFF = -0.1544 
    VOFFL = -5.043e-09 
    MINV = -0.3827 
    FPROUT =  362.5 
    PDITS = 0.1388 
    PDITSD = 0.3964 
    PDITSL = 1.095e+06 
    DELTA = 0.01109 
    RDSW =    110 
    RDSWMIN =      0 
    RDWMIN =    180 
    RSWMIN =    180 
    RDW =    100 
    RSW =    100 
    PRWG =      0 
    PRWB =      0 
    PRT =      0 
    ETA0 = 0.0665 
    ETAB =      0 
    PCLM = 0.2847 
    PDIBLC1 =  1e-05 
    PDIBLC2 =  1e-05 
    PDIBLCB =      0 
    PSCBE1 =  5e+09 
    PSCBE2 =  5e-06 
    PVAG = 0.9788 
    WR =      1 
    DWG =      0 
    DWB =      0 
    XW = -5e-09 
    XWREF = -5e-09 
    XL = -3e-09 
    XLREF = -3e-09 
    B0 =      0 
    B1 =      0 
    ALPHA0 = 2.68e-12 
    ALPHA1 =      0 
    AGIDL = 4.532e-08 
    BGIDL = 2.958e+09 
    CGIDL =   0.67 
    PHIN = 0.1449 
    EGIDL =   0.01 
    AIGC = 0.01179 
    BIGC = 0.001851 
    CIGC = 0.02865 
    AIGSD = 0.009363 
    BIGSD = 0.001287 
    CIGSD = 0.05363 
    AIGBACC = 0.01246 
    BIGBACC = 0.002327 
    CIGBACC =      0 
    AIGBINV =  5.105 
    BIGBINV =   0.03 
    CIGBINV = 0.001819 
    NIGC =  2.774 
    NIGBINV =      3 
    NIGBACC =      4 
    NTOX =      1 
    EIGBINV = 0.002456 
    PIGCD =      1 
    POXEDGE =    1.3 
    XRCRG1 =     12 
    TNOIA =    1.5 
    TNOIB =    3.5 
    NTNOI =  1.554 
    XRCRG2 =      1 
    BETA0 =      2 
    IJTHDFWD = 0.001854 
    IJTHSFWD = 0.001854 
    IJTHDREV =    0.1 
    IJTHSREV =    0.1 
    XJBVD =      1 
    XJBVS =      1 
    BVD =     10 
    BVS =     10 
    VFB =     -1 
    GBMIN =  1e-12 
    RBDB =     50 
    RBPB =     50 
    RBSB =     50 
    RBPS =     50 
    RBPD =     50 
    CGSL = 1.64e-10 
    CGDL = 1.64e-10 
    CKAPPAS =    1.4 
    CKAPPAD =    1.4 
    CF =      0 
    CLC =      0 
    CLE =    0.6 
    DWC = -8e-09 
    DLC = 9.64e-09 
    DLCIG = 7.5e-09 
    DWJ =      0 
    VFBCV =     -1 
    ACDE = 0.3088 
    MOIN =  8.385 
    NOFF =  2.321 
    VOFFCV = -0.1546 
    DMCG =  1e-07 
    DMCI = 7.5e-08 
    DMDG =  1e-07 
    DMCGT =      0 
    XGW =      0 
    XGL =  5e-09 
    RSHG =     11 
    NGCON =      1 
    TCJ = 0.0008904 
    TPB = 0.001285 
    TCJSW = 0.001056 
    TPBSW = 0.0004388 
    TCJSWG = 0.0008402 
    TPBSWG = 0.001039 
    SK0 =      0 
    SK1 =      0 
    SK2 =      0 
    SL =  2e-06 
    SW =  2e-06 
    K =      0 
    LNFACTOR = 0.1398 
    LAGS =   -0.1 
    LLPE0 = 1.84e-09 
    LLPEB =  1e-35 
    LMINV = -0.00679 
    PVSAT =    130 
    PU0 =   0.05 
    TNOM =  298.1 
    CGSO = 8.2e-11 
    CGDO = 8.2e-11 
    CGBO =  1e-12 
    XPART =      0 
    RSH =     12 
    JSS = 5.603e-07 
    JSWS = 1.641e-13 
    JSWGS = 2.339e-13 
    PBS =      1 
    MJS =  0.613 
    PBSWS =    0.1 
    MJSWS = 0.09162 
    CJS = 0.00137 
    CJSWS = 6.266e-11 
    NJS =      1 
    PBSWGS =  1.118 
    MJSWGS = 0.9845 
    CJSWGS = 2.2e-10 
    XTIS =      3 
    JSD = 5.603e-07 
    JSWD = 1.641e-13 
    JSWGD = 2.339e-13 
    PBD =      1 
    MJD =  0.613 
    PBSWD =    0.1 
    MJSWD = 0.09162 
    CJD = 0.00137 
    CJSWD = 6.266e-11 
    NJD =      1 
    PBSWGD =  1.118 
    MJSWGD = 0.9845 
    CJSWGD = 2.2e-10 
    XTID =      3 
    LMLT =      1 
    WMLT =      1 
    LINT =      0 
    LL =      0 
    LLC =      0 
    LLN =      1 
    LW =      0 
    LWC =      0 
    LWN =      1 
    LWL =      0 
    LWLC =      0 
    LMIN =  6e-08 
    LMAX = 0.0001 
    WINT =      0 
    WL =      0 
    WLC =      0 
    WLN =      1 
    WW =      0 
    WWC =      0 
    WWN =      1 
    WWL =      0 
    WWLC =      0 
    WMIN = 1.2e-07 
    WMAX =      1 
    NOIA = 1.55e+42 
    NOIB = 2.11e+25 
    NOIC = 4.62e+07 
    EM = 4.1e+07 
    EF = 0.9178 
    AF =      1 
    KF = 1.2e-27 
    TRS =      0 
    TRD =      0 
    TEMPMOD  =      1 
    LAMBDA   =      0 
    VTL      =  2e+05 m/s
    LC       =  5e-09 
    XN       =      3 
    LLAMBDA  =      0 
    LVTL     =      0 
    LXN      =      0 
    WLAMBDA  =      0 
    WVTL     =      0 
    WXN      =      0 
    PLAMBDA  =      0 
    PVTL     =      0 
    PXN      =      0 
    RNOIA    =  0.577 
    RNOIB    = 0.5164 
    SAREF(SA0) = 4.5e-07 m
    SBREF(SB0) = 4.5e-07 m
    WLOD     =      0 m
    KU0      = -2.2e-09 1/m
    KVSAT    =      1 
    KVTH0    = 1.6e-09 m
    TKU0     =      0 
    LLODKU0  =      0 
    WLODKU0  =      0 
    LLODVTH  =      0 
    WLODVTH  =      0 
    LKU0     =      0 
    WKU0     =      0 
    PKU0     =      0 
    LKVTH0   =      0 
    WKVTH0   =      0 
    PKVTH0   =      0 
    STK2     =      0 
    LODK2    =      1 
    STETA0   =      0 
    LODETA0  =      1 
    LXRCRG1  =      0 
    WXRCRG1  =      0 
    PXRCRG1  =      0 
    LXRCRG2  =      0 
    WXRCRG2  =      0 
    PXRCRG2  =      0 
     *** UCB's BSIM4.4.0 new diode model is activated. ***
    *** UCB's Diode Model Parameters ***
    JTSS         =      0 
    JTSSWS       =      0 
    JTSSWGS      = 1.5e-09 
    JTSD         =      0 
    JTSSWD       =      0 
    JTSSWGD      = 1.5e-09 
    NJTS         =     20 
    NJTSSW       =     20 
    NJTSSWG      =     20 
    XTSS         =   0.02 
    XTSSWS       =   0.02 
    XTSSWGS      =   0.02 
    XTSD         =   0.02 
    XTSSWD       =   0.02 
    XTSSWGD      =   0.02 
    TNJTS        =      0 
    TNJTSSW      =      0 
    TNJTSSWG     =      0 
    VFBSDOFF     =      0 
    LVFBSDOFF    =      0 
    WVFBSDOFF    =      0 
    PVFBSDOFF    =      0 
    LINTNOI      = -3.68e-08 
    VTSS         =     10 
    VTSD         =     10 
    VTSSWS       =     10 
    VTSSWD       =     10 
    VTSSWGS      =     10 
    VTSSWGD      =     10 
    TTDIOMOD     =      1 
     *** UCB's BSIM4.5.0 new model is activated. ***
    UD         =      0 
    UD1        =      0 
    UP         =      0 
    LP         = 1.872e-08 
    TVOFF      =      0 
    TVFBSDOFF  =      0 
    RBPS0      =     50 
    RBPSL      =      0 
    RBPSW      =      0 
    RBPSNF     =      0 
    RBPD0      =     50 
    RBPDL      =      0 
    RBPDW      =      0 
    RBPDNF     =      0 
    RBPBX0     =    100 
    RBPBXL     =      0 
    RBPBXW     =      0 
    RBPBXNF    =      0 
    RBPBY0     =    100 
    RBPBYL     =      0 
    RBPBYW     =      0 
    RBPBYNF    =      0 
    RBSBX0     =    100 
    RBSBY0     =    100 
    RBDBX0     =    100 
    RBDBY0     =    100 
    RBSDBXL    =      0 
    RBSDBXW    =      0 
    RBSDBXNF   =      0 
    RBSDBYL    =      0 
    RBSDBYW    =      0 
    RBSDBYNF   =      0 
    LUD        =      0 
    LUD1       =      0 
    LUP        =      0 
    LLP        =      0 
    LTVOFF     =      0 
    LTVFBSDOFF =      0 
    WUD        =      0 
    WUD1       =      0 
    WUP        =      0 
    WLP        =      0 
    WTVOFF     =      0 
    WTVFBSDOFF =      0 
    PUD        =      0 
    PUD1       =      0 
    PUP        =      0 
    PLP        =      0 
    PTVOFF     =      0 
    PTVFBSDOFF =      0 
    WEB        =      0 
    WEC        =      0 
    KVTH0WE    =      0 
    K2WE       =      0 
    KU0WE      =      0 
    SCREF      =  1e-06 
    WPEMOD     =      0 
    LKVTH0WE   =      0 
    LK2WE      =      0 
    LKU0WE     =      0 
    WKVTH0WE   =      0 
    WK2WE      =      0 
    WKU0WE     =      0 
    PKVTH0WE   =      0 
    PK2WE      =      0 
    PKU0WE     =      0 
 Model file: /proj/cad/library/mosis/GF65_LPe/cmos10lpe_CDS_oa_dl064_11_20160415/models/YI-SM00030/Hspice/models/./nfet.inc
 Model line:          222
 Model Name: nfet  
 BSIM4 Model (Level 54)
    MOBMOD = 0
    BINUNIT = 1
    PARAMCHK = 0
    CAPMOD = 2
    DIOMOD = 1
    RDSMOD = 0
    TRNQSMOD = 0
    ACNQSMOD = 0
    RBODYMOD = 0
    RGATEMOD = 0
    PERMOD = 1
    GEOMOD = 0
    RGEOMOD = 0
    FNOIMOD = 1
    TNOIMOD = 0
    IGCMOD = 1
    IGBMOD = 1
    STIMOD = 1
    VBFWDMOD = 0
    VERSION =    4.5 
    TOXREF = 2.51e-09 
    TOXE = 2.6e-09 
    TOXP = 2.35e-09 
    TOXM = 2.51e-09 
    DTOX =      0 
    EPSROX =    3.9 
    CDSC =      0 
    CDSCB =      0 
    CDSCD =      0 
    CIT =      0 
    NFACTOR =  1.496 
    XJ =  1e-07 
    VSAT = 1.67e+05 
    A0 =  1.045 
    AGS =  0.589 
    A1 =      0 
    A2 =  0.598 
    AT = 0.001604 
    KETA = -0.05307 
    NSUB =  6e+16 
    NDEP = 3.181e+17 
    NSD =  1e+20 
    NGATE =  1e+21 
    GAMMA1 =      0 
    GAMMA2 =      0 
    VBX =      0 
    VBM =     -3 
    XT = 1.55e-07 
    K1 =  0.435 
    KT1 = -0.185 
    KT1L = -6e-10 
    KT2 =      0 
    K2 = -0.06627 
    K3 = -0.05758 
    K3B =      0 
    LPE0 = 4.737e-08 
    LPEB =      0 
    DVTP0 = 3.078e-07 
    DVTP1 =      0 
    W0 =  1e-09 
    DVT0 =   7.55 
    DVT1 = 0.5562 
    DVT2 = 0.04519 
    DVT0W =      0 
    DVT1W = 4.278e+05 
    DVT2W =  0.275 
    DROUT = 0.9416 
    DSUB = 0.3332 
    VTH0 = 0.4532 
    EU =   1.67 
    UA = 6.658e-11 
    UA1 =      0 
    UB = 1.717e-18 
    UB1 =      0 
    UC = 9.303e-11 
    UC1 =      0 
    U0 =    412 
    UTE = -0.9506 
    VOFF = -0.1544 
    VOFFL = -5.043e-09 
    MINV = -0.3827 
    FPROUT =  362.5 
    PDITS = 0.1388 
    PDITSD = 0.3964 
    PDITSL = 1.095e+06 
    DELTA = 0.01109 
    RDSW =    110 
    RDSWMIN =      0 
    RDWMIN =    180 
    RSWMIN =    180 
    RDW =    100 
    RSW =    100 
    PRWG =      0 
    PRWB =      0 
    PRT =      0 
    ETA0 = 0.0665 
    ETAB =      0 
    PCLM = 0.2847 
    PDIBLC1 =  1e-05 
    PDIBLC2 =  1e-05 
    PDIBLCB =      0 
    PSCBE1 =  5e+09 
    PSCBE2 =  5e-06 
    PVAG = 0.9788 
    WR =      1 
    DWG =      0 
    DWB =      0 
    XW = -5e-09 
    XWREF = -5e-09 
    XL = -3e-09 
    XLREF = -3e-09 
    B0 =      0 
    B1 =      0 
    ALPHA0 = 2.68e-12 
    ALPHA1 =      0 
    AGIDL = 4.532e-08 
    BGIDL = 2.958e+09 
    CGIDL =   0.67 
    PHIN = 0.1449 
    EGIDL =   0.01 
    AIGC = 0.01179 
    BIGC = 0.001851 
    CIGC = 0.02865 
    AIGSD = 0.009363 
    BIGSD = 0.001287 
    CIGSD = 0.05363 
    AIGBACC = 0.01246 
    BIGBACC = 0.002327 
    CIGBACC =      0 
    AIGBINV =  5.105 
    BIGBINV =   0.03 
    CIGBINV = 0.001819 
    NIGC =  2.774 
    NIGBINV =      3 
    NIGBACC =      4 
    NTOX =      1 
    EIGBINV = 0.002456 
    PIGCD =      1 
    POXEDGE =    1.3 
    XRCRG1 =     12 
    TNOIA =    1.5 
    TNOIB =    3.5 
    NTNOI =  1.554 
    XRCRG2 =      1 
    BETA0 =      2 
    IJTHDFWD = 0.001854 
    IJTHSFWD = 0.001854 
    IJTHDREV =    0.1 
    IJTHSREV =    0.1 
    XJBVD =      1 
    XJBVS =      1 
    BVD =     10 
    BVS =     10 
    VFB =     -1 
    GBMIN =  1e-12 
    RBDB =     50 
    RBPB =     50 
    RBSB =     50 
    RBPS =     50 
    RBPD =     50 
    CGSL = 1.64e-10 
    CGDL = 1.64e-10 
    CKAPPAS =    1.4 
    CKAPPAD =    1.4 
    CF =      0 
    CLC =      0 
    CLE =    0.6 
    DWC = -8e-09 
    DLC = 9.64e-09 
    DLCIG = 7.5e-09 
    DWJ =      0 
    VFBCV =     -1 
    ACDE = 0.3088 
    MOIN =  8.385 
    NOFF =  2.321 
    VOFFCV = -0.1546 
    DMCG =  1e-07 
    DMCI = 7.5e-08 
    DMDG =  1e-07 
    DMCGT =      0 
    XGW =      0 
    XGL =  5e-09 
    RSHG =     11 
    NGCON =      1 
    TCJ = 0.0008904 
    TPB = 0.001285 
    TCJSW = 0.001056 
    TPBSW = 0.0004388 
    TCJSWG = 0.0008402 
    TPBSWG = 0.001039 
    SK0 =      0 
    SK1 =      0 
    SK2 =      0 
    SL =  2e-06 
    SW =  2e-06 
    K =      0 
    LNFACTOR = 0.1398 
    LAGS =   -0.1 
    LLPE0 = 1.84e-09 
    LLPEB =  1e-35 
    LMINV = -0.00679 
    PVSAT =    130 
    PU0 =   0.05 
    TNOM =  298.1 
    CGSO = 8.2e-11 
    CGDO = 8.2e-11 
    CGBO =  1e-12 
    XPART =      0 
    RSH =     12 
    JSS = 5.603e-07 
    JSWS = 1.641e-13 
    JSWGS = 2.339e-13 
    PBS =      1 
    MJS =  0.613 
    PBSWS =    0.1 
    MJSWS = 0.09162 
    CJS = 0.00137 
    CJSWS = 6.266e-11 
    NJS =      1 
    PBSWGS =  1.118 
    MJSWGS = 0.9845 
    CJSWGS = 2.2e-10 
    XTIS =      3 
    JSD = 5.603e-07 
    JSWD = 1.641e-13 
    JSWGD = 2.339e-13 
    PBD =      1 
    MJD =  0.613 
    PBSWD =    0.1 
    MJSWD = 0.09162 
    CJD = 0.00137 
    CJSWD = 6.266e-11 
    NJD =      1 
    PBSWGD =  1.118 
    MJSWGD = 0.9845 
    CJSWGD = 2.2e-10 
    XTID =      3 
    LMLT =      1 
    WMLT =      1 
    LINT =      0 
    LL =      0 
    LLC =      0 
    LLN =      1 
    LW =      0 
    LWC =      0 
    LWN =      1 
    LWL =      0 
    LWLC =      0 
    LMIN =  6e-08 
    LMAX = 0.0001 
    WINT =      0 
    WL =      0 
    WLC =      0 
    WLN =      1 
    WW =      0 
    WWC =      0 
    WWN =      1 
    WWL =      0 
    WWLC =      0 
    WMIN = 1.2e-07 
    WMAX =      1 
    NOIA = 1.55e+42 
    NOIB = 2.11e+25 
    NOIC = 4.62e+07 
    EM = 4.1e+07 
    EF = 0.9178 
    AF =      1 
    KF = 1.2e-27 
    TRS =      0 
    TRD =      0 
    TEMPMOD  =      1 
    LAMBDA   =      0 
    VTL      =  2e+05 m/s
    LC       =  5e-09 
    XN       =      3 
    LLAMBDA  =      0 
    LVTL     =      0 
    LXN      =      0 
    WLAMBDA  =      0 
    WVTL     =      0 
    WXN      =      0 
    PLAMBDA  =      0 
    PVTL     =      0 
    PXN      =      0 
    RNOIA    =  0.577 
    RNOIB    = 0.5164 
    SAREF(SA0) = 4.5e-07 m
    SBREF(SB0) = 4.5e-07 m
    WLOD     =      0 m
    KU0      = -2.2e-09 1/m
    KVSAT    =      1 
    KVTH0    = 1.6e-09 m
    TKU0     =      0 
    LLODKU0  =      0 
    WLODKU0  =      0 
    LLODVTH  =      0 
    WLODVTH  =      0 
    LKU0     =      0 
    WKU0     =      0 
    PKU0     =      0 
    LKVTH0   =      0 
    WKVTH0   =      0 
    PKVTH0   =      0 
    STK2     =      0 
    LODK2    =      1 
    STETA0   =      0 
    LODETA0  =      1 
    LXRCRG1  =      0 
    WXRCRG1  =      0 
    PXRCRG1  =      0 
    LXRCRG2  =      0 
    WXRCRG2  =      0 
    PXRCRG2  =      0 
     *** UCB's BSIM4.4.0 new diode model is activated. ***
    *** UCB's Diode Model Parameters ***
    JTSS         =      0 
    JTSSWS       =      0 
    JTSSWGS      = 1.5e-09 
    JTSD         =      0 
    JTSSWD       =      0 
    JTSSWGD      = 1.5e-09 
    NJTS         =     20 
    NJTSSW       =     20 
    NJTSSWG      =     20 
    XTSS         =   0.02 
    XTSSWS       =   0.02 
    XTSSWGS      =   0.02 
    XTSD         =   0.02 
    XTSSWD       =   0.02 
    XTSSWGD      =   0.02 
    TNJTS        =      0 
    TNJTSSW      =      0 
    TNJTSSWG     =      0 
    VFBSDOFF     =      0 
    LVFBSDOFF    =      0 
    WVFBSDOFF    =      0 
    PVFBSDOFF    =      0 
    LINTNOI      = -3.68e-08 
    VTSS         =     10 
    VTSD         =     10 
    VTSSWS       =     10 
    VTSSWD       =     10 
    VTSSWGS      =     10 
    VTSSWGD      =     10 
    TTDIOMOD     =      1 
     *** UCB's BSIM4.5.0 new model is activated. ***
    UD         =      0 
    UD1        =      0 
    UP         =      0 
    LP         = 1.872e-08 
    TVOFF      =      0 
    TVFBSDOFF  =      0 
    RBPS0      =     50 
    RBPSL      =      0 
    RBPSW      =      0 
    RBPSNF     =      0 
    RBPD0      =     50 
    RBPDL      =      0 
    RBPDW      =      0 
    RBPDNF     =      0 
    RBPBX0     =    100 
    RBPBXL     =      0 
    RBPBXW     =      0 
    RBPBXNF    =      0 
    RBPBY0     =    100 
    RBPBYL     =      0 
    RBPBYW     =      0 
    RBPBYNF    =      0 
    RBSBX0     =    100 
    RBSBY0     =    100 
    RBDBX0     =    100 
    RBDBY0     =    100 
    RBSDBXL    =      0 
    RBSDBXW    =      0 
    RBSDBXNF   =      0 
    RBSDBYL    =      0 
    RBSDBYW    =      0 
    RBSDBYNF   =      0 
    LUD        =      0 
    LUD1       =      0 
    LUP        =      0 
    LLP        =      0 
    LTVOFF     =      0 
    LTVFBSDOFF =      0 
    WUD        =      0 
    WUD1       =      0 
    WUP        =      0 
    WLP        =      0 
    WTVOFF     =      0 
    WTVFBSDOFF =      0 
    PUD        =      0 
    PUD1       =      0 
    PUP        =      0 
    PLP        =      0 
    PTVOFF     =      0 
    PTVFBSDOFF =      0 
    WEB        =      0 
    WEC        =      0 
    KVTH0WE    =      0 
    K2WE       =      0 
    KU0WE      =      0 
    SCREF      =  1e-06 
    WPEMOD     =      0 
    LKVTH0WE   =      0 
    LK2WE      =      0 
    LKU0WE     =      0 
    WKVTH0WE   =      0 
    WK2WE      =      0 
    WKU0WE     =      0 
    PKVTH0WE   =      0 
    PK2WE      =      0 
    PKU0WE     =      0 
 Model file: /proj/cad/library/mosis/GF65_LPe/cmos10lpe_CDS_oa_dl064_11_20160415/models/YI-SM00030/Hspice/models/./nfet.inc
 Model line:          222
 Model Name: nfet  
 BSIM4 Model (Level 54)
    MOBMOD = 0
    BINUNIT = 1
    PARAMCHK = 0
    CAPMOD = 2
    DIOMOD = 1
    RDSMOD = 0
    TRNQSMOD = 0
    ACNQSMOD = 0
    RBODYMOD = 0
    RGATEMOD = 0
    PERMOD = 1
    GEOMOD = 0
    RGEOMOD = 0
    FNOIMOD = 1
    TNOIMOD = 0
    IGCMOD = 1
    IGBMOD = 1
    STIMOD = 1
    VBFWDMOD = 0
    VERSION =    4.5 
    TOXREF = 2.51e-09 
    TOXE = 2.6e-09 
    TOXP = 2.35e-09 
    TOXM = 2.51e-09 
    DTOX =      0 
    EPSROX =    3.9 
    CDSC =      0 
    CDSCB =      0 
    CDSCD =      0 
    CIT =      0 
    NFACTOR =  1.496 
    XJ =  1e-07 
    VSAT = 1.67e+05 
    A0 =  1.045 
    AGS =  0.589 
    A1 =      0 
    A2 =  0.598 
    AT = 0.001604 
    KETA = -0.05307 
    NSUB =  6e+16 
    NDEP = 3.181e+17 
    NSD =  1e+20 
    NGATE =  1e+21 
    GAMMA1 =      0 
    GAMMA2 =      0 
    VBX =      0 
    VBM =     -3 
    XT = 1.55e-07 
    K1 =  0.435 
    KT1 = -0.185 
    KT1L = -6e-10 
    KT2 =      0 
    K2 = -0.06627 
    K3 = -0.05758 
    K3B =      0 
    LPE0 = 4.737e-08 
    LPEB =      0 
    DVTP0 = 3.078e-07 
    DVTP1 =      0 
    W0 =  1e-09 
    DVT0 =   7.55 
    DVT1 = 0.5562 
    DVT2 = 0.04519 
    DVT0W =      0 
    DVT1W = 4.278e+05 
    DVT2W =  0.275 
    DROUT = 0.9416 
    DSUB = 0.3332 
    VTH0 = 0.4532 
    EU =   1.67 
    UA = 6.658e-11 
    UA1 =      0 
    UB = 1.717e-18 
    UB1 =      0 
    UC = 9.303e-11 
    UC1 =      0 
    U0 =    412 
    UTE = -0.9506 
    VOFF = -0.1544 
    VOFFL = -5.043e-09 
    MINV = -0.3827 
    FPROUT =  362.5 
    PDITS = 0.1388 
    PDITSD = 0.3964 
    PDITSL = 1.095e+06 
    DELTA = 0.01109 
    RDSW =    110 
    RDSWMIN =      0 
    RDWMIN =    180 
    RSWMIN =    180 
    RDW =    100 
    RSW =    100 
    PRWG =      0 
    PRWB =      0 
    PRT =      0 
    ETA0 = 0.0665 
    ETAB =      0 
    PCLM = 0.2847 
    PDIBLC1 =  1e-05 
    PDIBLC2 =  1e-05 
    PDIBLCB =      0 
    PSCBE1 =  5e+09 
    PSCBE2 =  5e-06 
    PVAG = 0.9788 
    WR =      1 
    DWG =      0 
    DWB =      0 
    XW = -5e-09 
    XWREF = -5e-09 
    XL = -3e-09 
    XLREF = -3e-09 
    B0 =      0 
    B1 =      0 
    ALPHA0 = 2.68e-12 
    ALPHA1 =      0 
    AGIDL = 4.532e-08 
    BGIDL = 2.958e+09 
    CGIDL =   0.67 
    PHIN = 0.1449 
    EGIDL =   0.01 
    AIGC = 0.01179 
    BIGC = 0.001851 
    CIGC = 0.02865 
    AIGSD = 0.009363 
    BIGSD = 0.001287 
    CIGSD = 0.05363 
    AIGBACC = 0.01246 
    BIGBACC = 0.002327 
    CIGBACC =      0 
    AIGBINV =  5.105 
    BIGBINV =   0.03 
    CIGBINV = 0.001819 
    NIGC =  2.774 
    NIGBINV =      3 
    NIGBACC =      4 
    NTOX =      1 
    EIGBINV = 0.002456 
    PIGCD =      1 
    POXEDGE =    1.3 
    XRCRG1 =     12 
    TNOIA =    1.5 
    TNOIB =    3.5 
    NTNOI =  1.554 
    XRCRG2 =      1 
    BETA0 =      2 
    IJTHDFWD = 0.001854 
    IJTHSFWD = 0.001854 
    IJTHDREV =    0.1 
    IJTHSREV =    0.1 
    XJBVD =      1 
    XJBVS =      1 
    BVD =     10 
    BVS =     10 
    VFB =     -1 
    GBMIN =  1e-12 
    RBDB =     50 
    RBPB =     50 
    RBSB =     50 
    RBPS =     50 
    RBPD =     50 
    CGSL = 1.64e-10 
    CGDL = 1.64e-10 
    CKAPPAS =    1.4 
    CKAPPAD =    1.4 
    CF =      0 
    CLC =      0 
    CLE =    0.6 
    DWC = -8e-09 
    DLC = 9.64e-09 
    DLCIG = 7.5e-09 
    DWJ =      0 
    VFBCV =     -1 
    ACDE = 0.3088 
    MOIN =  8.385 
    NOFF =  2.321 
    VOFFCV = -0.1546 
    DMCG =  1e-07 
    DMCI = 7.5e-08 
    DMDG =  1e-07 
    DMCGT =      0 
    XGW =      0 
    XGL =  5e-09 
    RSHG =     11 
    NGCON =      1 
    TCJ = 0.0008904 
    TPB = 0.001285 
    TCJSW = 0.001056 
    TPBSW = 0.0004388 
    TCJSWG = 0.0008402 
    TPBSWG = 0.001039 
    SK0 =      0 
    SK1 =      0 
    SK2 =      0 
    SL =  2e-06 
    SW =  2e-06 
    K =      0 
    LNFACTOR = 0.1398 
    LAGS =   -0.1 
    LLPE0 = 1.84e-09 
    LLPEB =  1e-35 
    LMINV = -0.00679 
    PVSAT =    130 
    PU0 =   0.05 
    TNOM =  298.1 
    CGSO = 8.2e-11 
    CGDO = 8.2e-11 
    CGBO =  1e-12 
    XPART =      0 
    RSH =     12 
    JSS = 5.603e-07 
    JSWS = 1.641e-13 
    JSWGS = 2.339e-13 
    PBS =      1 
    MJS =  0.613 
    PBSWS =    0.1 
    MJSWS = 0.09162 
    CJS = 0.00137 
    CJSWS = 6.266e-11 
    NJS =      1 
    PBSWGS =  1.118 
    MJSWGS = 0.9845 
    CJSWGS = 2.2e-10 
    XTIS =      3 
    JSD = 5.603e-07 
    JSWD = 1.641e-13 
    JSWGD = 2.339e-13 
    PBD =      1 
    MJD =  0.613 
    PBSWD =    0.1 
    MJSWD = 0.09162 
    CJD = 0.00137 
    CJSWD = 6.266e-11 
    NJD =      1 
    PBSWGD =  1.118 
    MJSWGD = 0.9845 
    CJSWGD = 2.2e-10 
    XTID =      3 
    LMLT =      1 
    WMLT =      1 
    LINT =      0 
    LL =      0 
    LLC =      0 
    LLN =      1 
    LW =      0 
    LWC =      0 
    LWN =      1 
    LWL =      0 
    LWLC =      0 
    LMIN =  6e-08 
    LMAX = 0.0001 
    WINT =      0 
    WL =      0 
    WLC =      0 
    WLN =      1 
    WW =      0 
    WWC =      0 
    WWN =      1 
    WWL =      0 
    WWLC =      0 
    WMIN = 1.2e-07 
    WMAX =      1 
    NOIA = 1.55e+42 
    NOIB = 2.11e+25 
    NOIC = 4.62e+07 
    EM = 4.1e+07 
    EF = 0.9178 
    AF =      1 
    KF = 1.2e-27 
    TRS =      0 
    TRD =      0 
    TEMPMOD  =      1 
    LAMBDA   =      0 
    VTL      =  2e+05 m/s
    LC       =  5e-09 
    XN       =      3 
    LLAMBDA  =      0 
    LVTL     =      0 
    LXN      =      0 
    WLAMBDA  =      0 
    WVTL     =      0 
    WXN      =      0 
    PLAMBDA  =      0 
    PVTL     =      0 
    PXN      =      0 
    RNOIA    =  0.577 
    RNOIB    = 0.5164 
    SAREF(SA0) = 4.5e-07 m
    SBREF(SB0) = 4.5e-07 m
    WLOD     =      0 m
    KU0      = -2.2e-09 1/m
    KVSAT    =      1 
    KVTH0    = 1.6e-09 m
    TKU0     =      0 
    LLODKU0  =      0 
    WLODKU0  =      0 
    LLODVTH  =      0 
    WLODVTH  =      0 
    LKU0     =      0 
    WKU0     =      0 
    PKU0     =      0 
    LKVTH0   =      0 
    WKVTH0   =      0 
    PKVTH0   =      0 
    STK2     =      0 
    LODK2    =      1 
    STETA0   =      0 
    LODETA0  =      1 
    LXRCRG1  =      0 
    WXRCRG1  =      0 
    PXRCRG1  =      0 
    LXRCRG2  =      0 
    WXRCRG2  =      0 
    PXRCRG2  =      0 
     *** UCB's BSIM4.4.0 new diode model is activated. ***
    *** UCB's Diode Model Parameters ***
    JTSS         =      0 
    JTSSWS       =      0 
    JTSSWGS      = 1.5e-09 
    JTSD         =      0 
    JTSSWD       =      0 
    JTSSWGD      = 1.5e-09 
    NJTS         =     20 
    NJTSSW       =     20 
    NJTSSWG      =     20 
    XTSS         =   0.02 
    XTSSWS       =   0.02 
    XTSSWGS      =   0.02 
    XTSD         =   0.02 
    XTSSWD       =   0.02 
    XTSSWGD      =   0.02 
    TNJTS        =      0 
    TNJTSSW      =      0 
    TNJTSSWG     =      0 
    VFBSDOFF     =      0 
    LVFBSDOFF    =      0 
    WVFBSDOFF    =      0 
    PVFBSDOFF    =      0 
    LINTNOI      = -3.68e-08 
    VTSS         =     10 
    VTSD         =     10 
    VTSSWS       =     10 
    VTSSWD       =     10 
    VTSSWGS      =     10 
    VTSSWGD      =     10 
    TTDIOMOD     =      1 
     *** UCB's BSIM4.5.0 new model is activated. ***
    UD         =      0 
    UD1        =      0 
    UP         =      0 
    LP         = 1.872e-08 
    TVOFF      =      0 
    TVFBSDOFF  =      0 
    RBPS0      =     50 
    RBPSL      =      0 
    RBPSW      =      0 
    RBPSNF     =      0 
    RBPD0      =     50 
    RBPDL      =      0 
    RBPDW      =      0 
    RBPDNF     =      0 
    RBPBX0     =    100 
    RBPBXL     =      0 
    RBPBXW     =      0 
    RBPBXNF    =      0 
    RBPBY0     =    100 
    RBPBYL     =      0 
    RBPBYW     =      0 
    RBPBYNF    =      0 
    RBSBX0     =    100 
    RBSBY0     =    100 
    RBDBX0     =    100 
    RBDBY0     =    100 
    RBSDBXL    =      0 
    RBSDBXW    =      0 
    RBSDBXNF   =      0 
    RBSDBYL    =      0 
    RBSDBYW    =      0 
    RBSDBYNF   =      0 
    LUD        =      0 
    LUD1       =      0 
    LUP        =      0 
    LLP        =      0 
    LTVOFF     =      0 
    LTVFBSDOFF =      0 
    WUD        =      0 
    WUD1       =      0 
    WUP        =      0 
    WLP        =      0 
    WTVOFF     =      0 
    WTVFBSDOFF =      0 
    PUD        =      0 
    PUD1       =      0 
    PUP        =      0 
    PLP        =      0 
    PTVOFF     =      0 
    PTVFBSDOFF =      0 
    WEB        =      0 
    WEC        =      0 
    KVTH0WE    =      0 
    K2WE       =      0 
    KU0WE      =      0 
    SCREF      =  1e-06 
    WPEMOD     =      0 
    LKVTH0WE   =      0 
    LK2WE      =      0 
    LKU0WE     =      0 
    WKVTH0WE   =      0 
    WK2WE      =      0 
    WKU0WE     =      0 
    PKVTH0WE   =      0 
    PK2WE      =      0 
    PKU0WE     =      0 
 Model file: /proj/cad/library/mosis/GF65_LPe/cmos10lpe_CDS_oa_dl064_11_20160415/models/YI-SM00030/Hspice/models/./nfet.inc
 Model line:          222
 Model Name: nfet  
 BSIM4 Model (Level 54)
    MOBMOD = 0
    BINUNIT = 1
    PARAMCHK = 0
    CAPMOD = 2
    DIOMOD = 1
    RDSMOD = 0
    TRNQSMOD = 0
    ACNQSMOD = 0
    RBODYMOD = 0
    RGATEMOD = 0
    PERMOD = 1
    GEOMOD = 0
    RGEOMOD = 0
    FNOIMOD = 1
    TNOIMOD = 0
    IGCMOD = 1
    IGBMOD = 1
    STIMOD = 1
    VBFWDMOD = 0
    VERSION =    4.5 
    TOXREF = 2.51e-09 
    TOXE = 2.6e-09 
    TOXP = 2.35e-09 
    TOXM = 2.51e-09 
    DTOX =      0 
    EPSROX =    3.9 
    CDSC =      0 
    CDSCB =      0 
    CDSCD =      0 
    CIT =      0 
    NFACTOR =  1.496 
    XJ =  1e-07 
    VSAT = 1.67e+05 
    A0 =  1.045 
    AGS =  0.589 
    A1 =      0 
    A2 =  0.598 
    AT = 0.001604 
    KETA = -0.05307 
    NSUB =  6e+16 
    NDEP = 3.181e+17 
    NSD =  1e+20 
    NGATE =  1e+21 
    GAMMA1 =      0 
    GAMMA2 =      0 
    VBX =      0 
    VBM =     -3 
    XT = 1.55e-07 
    K1 =  0.435 
    KT1 = -0.185 
    KT1L = -6e-10 
    KT2 =      0 
    K2 = -0.06627 
    K3 = -0.05758 
    K3B =      0 
    LPE0 = 4.737e-08 
    LPEB =      0 
    DVTP0 = 3.078e-07 
    DVTP1 =      0 
    W0 =  1e-09 
    DVT0 =   7.55 
    DVT1 = 0.5562 
    DVT2 = 0.04519 
    DVT0W =      0 
    DVT1W = 4.278e+05 
    DVT2W =  0.275 
    DROUT = 0.9416 
    DSUB = 0.3332 
    VTH0 = 0.4532 
    EU =   1.67 
    UA = 6.658e-11 
    UA1 =      0 
    UB = 1.717e-18 
    UB1 =      0 
    UC = 9.303e-11 
    UC1 =      0 
    U0 =    412 
    UTE = -0.9506 
    VOFF = -0.1544 
    VOFFL = -5.043e-09 
    MINV = -0.3827 
    FPROUT =  362.5 
    PDITS = 0.1388 
    PDITSD = 0.3964 
    PDITSL = 1.095e+06 
    DELTA = 0.01109 
    RDSW =    110 
    RDSWMIN =      0 
    RDWMIN =    180 
    RSWMIN =    180 
    RDW =    100 
    RSW =    100 
    PRWG =      0 
    PRWB =      0 
    PRT =      0 
    ETA0 = 0.0665 
    ETAB =      0 
    PCLM = 0.2847 
    PDIBLC1 =  1e-05 
    PDIBLC2 =  1e-05 
    PDIBLCB =      0 
    PSCBE1 =  5e+09 
    PSCBE2 =  5e-06 
    PVAG = 0.9788 
    WR =      1 
    DWG =      0 
    DWB =      0 
    XW = -5e-09 
    XWREF = -5e-09 
    XL = -3e-09 
    XLREF = -3e-09 
    B0 =      0 
    B1 =      0 
    ALPHA0 = 2.68e-12 
    ALPHA1 =      0 
    AGIDL = 4.532e-08 
    BGIDL = 2.958e+09 
    CGIDL =   0.67 
    PHIN = 0.1449 
    EGIDL =   0.01 
    AIGC = 0.01179 
    BIGC = 0.001851 
    CIGC = 0.02865 
    AIGSD = 0.009363 
    BIGSD = 0.001287 
    CIGSD = 0.05363 
    AIGBACC = 0.01246 
    BIGBACC = 0.002327 
    CIGBACC =      0 
    AIGBINV =  5.105 
    BIGBINV =   0.03 
    CIGBINV = 0.001819 
    NIGC =  2.774 
    NIGBINV =      3 
    NIGBACC =      4 
    NTOX =      1 
    EIGBINV = 0.002456 
    PIGCD =      1 
    POXEDGE =    1.3 
    XRCRG1 =     12 
    TNOIA =    1.5 
    TNOIB =    3.5 
    NTNOI =  1.554 
    XRCRG2 =      1 
    BETA0 =      2 
    IJTHDFWD = 0.001854 
    IJTHSFWD = 0.001854 
    IJTHDREV =    0.1 
    IJTHSREV =    0.1 
    XJBVD =      1 
    XJBVS =      1 
    BVD =     10 
    BVS =     10 
    VFB =     -1 
    GBMIN =  1e-12 
    RBDB =     50 
    RBPB =     50 
    RBSB =     50 
    RBPS =     50 
    RBPD =     50 
    CGSL = 1.64e-10 
    CGDL = 1.64e-10 
    CKAPPAS =    1.4 
    CKAPPAD =    1.4 
    CF =      0 
    CLC =      0 
    CLE =    0.6 
    DWC = -8e-09 
    DLC = 9.64e-09 
    DLCIG = 7.5e-09 
    DWJ =      0 
    VFBCV =     -1 
    ACDE = 0.3088 
    MOIN =  8.385 
    NOFF =  2.321 
    VOFFCV = -0.1546 
    DMCG =  1e-07 
    DMCI = 7.5e-08 
    DMDG =  1e-07 
    DMCGT =      0 
    XGW =      0 
    XGL =  5e-09 
    RSHG =     11 
    NGCON =      1 
    TCJ = 0.0008904 
    TPB = 0.001285 
    TCJSW = 0.001056 
    TPBSW = 0.0004388 
    TCJSWG = 0.0008402 
    TPBSWG = 0.001039 
    SK0 =      0 
    SK1 =      0 
    SK2 =      0 
    SL =  2e-06 
    SW =  2e-06 
    K =      0 
    LNFACTOR = 0.1398 
    LAGS =   -0.1 
    LLPE0 = 1.84e-09 
    LLPEB =  1e-35 
    LMINV = -0.00679 
    PVSAT =    130 
    PU0 =   0.05 
    TNOM =  298.1 
    CGSO = 8.2e-11 
    CGDO = 8.2e-11 
    CGBO =  1e-12 
    XPART =      0 
    RSH =     12 
    JSS = 5.603e-07 
    JSWS = 1.641e-13 
    JSWGS = 2.339e-13 
    PBS =      1 
    MJS =  0.613 
    PBSWS =    0.1 
    MJSWS = 0.09162 
    CJS = 0.00137 
    CJSWS = 6.266e-11 
    NJS =      1 
    PBSWGS =  1.118 
    MJSWGS = 0.9845 
    CJSWGS = 2.2e-10 
    XTIS =      3 
    JSD = 5.603e-07 
    JSWD = 1.641e-13 
    JSWGD = 2.339e-13 
    PBD =      1 
    MJD =  0.613 
    PBSWD =    0.1 
    MJSWD = 0.09162 
    CJD = 0.00137 
    CJSWD = 6.266e-11 
    NJD =      1 
    PBSWGD =  1.118 
    MJSWGD = 0.9845 
    CJSWGD = 2.2e-10 
    XTID =      3 
    LMLT =      1 
    WMLT =      1 
    LINT =      0 
    LL =      0 
    LLC =      0 
    LLN =      1 
    LW =      0 
    LWC =      0 
    LWN =      1 
    LWL =      0 
    LWLC =      0 
    LMIN =  6e-08 
    LMAX = 0.0001 
    WINT =      0 
    WL =      0 
    WLC =      0 
    WLN =      1 
    WW =      0 
    WWC =      0 
    WWN =      1 
    WWL =      0 
    WWLC =      0 
    WMIN = 1.2e-07 
    WMAX =      1 
    NOIA = 1.55e+42 
    NOIB = 2.11e+25 
    NOIC = 4.62e+07 
    EM = 4.1e+07 
    EF = 0.9178 
    AF =      1 
    KF = 1.2e-27 
    TRS =      0 
    TRD =      0 
    TEMPMOD  =      1 
    LAMBDA   =      0 
    VTL      =  2e+05 m/s
    LC       =  5e-09 
    XN       =      3 
    LLAMBDA  =      0 
    LVTL     =      0 
    LXN      =      0 
    WLAMBDA  =      0 
    WVTL     =      0 
    WXN      =      0 
    PLAMBDA  =      0 
    PVTL     =      0 
    PXN      =      0 
    RNOIA    =  0.577 
    RNOIB    = 0.5164 
    SAREF(SA0) = 4.5e-07 m
    SBREF(SB0) = 4.5e-07 m
    WLOD     =      0 m
    KU0      = -2.2e-09 1/m
    KVSAT    =      1 
    KVTH0    = 1.6e-09 m
    TKU0     =      0 
    LLODKU0  =      0 
    WLODKU0  =      0 
    LLODVTH  =      0 
    WLODVTH  =      0 
    LKU0     =      0 
    WKU0     =      0 
    PKU0     =      0 
    LKVTH0   =      0 
    WKVTH0   =      0 
    PKVTH0   =      0 
    STK2     =      0 
    LODK2    =      1 
    STETA0   =      0 
    LODETA0  =      1 
    LXRCRG1  =      0 
    WXRCRG1  =      0 
    PXRCRG1  =      0 
    LXRCRG2  =      0 
    WXRCRG2  =      0 
    PXRCRG2  =      0 
     *** UCB's BSIM4.4.0 new diode model is activated. ***
    *** UCB's Diode Model Parameters ***
    JTSS         =      0 
    JTSSWS       =      0 
    JTSSWGS      = 1.5e-09 
    JTSD         =      0 
    JTSSWD       =      0 
    JTSSWGD      = 1.5e-09 
    NJTS         =     20 
    NJTSSW       =     20 
    NJTSSWG      =     20 
    XTSS         =   0.02 
    XTSSWS       =   0.02 
    XTSSWGS      =   0.02 
    XTSD         =   0.02 
    XTSSWD       =   0.02 
    XTSSWGD      =   0.02 
    TNJTS        =      0 
    TNJTSSW      =      0 
    TNJTSSWG     =      0 
    VFBSDOFF     =      0 
    LVFBSDOFF    =      0 
    WVFBSDOFF    =      0 
    PVFBSDOFF    =      0 
    LINTNOI      = -3.68e-08 
    VTSS         =     10 
    VTSD         =     10 
    VTSSWS       =     10 
    VTSSWD       =     10 
    VTSSWGS      =     10 
    VTSSWGD      =     10 
    TTDIOMOD     =      1 
     *** UCB's BSIM4.5.0 new model is activated. ***
    UD         =      0 
    UD1        =      0 
    UP         =      0 
    LP         = 1.872e-08 
    TVOFF      =      0 
    TVFBSDOFF  =      0 
    RBPS0      =     50 
    RBPSL      =      0 
    RBPSW      =      0 
    RBPSNF     =      0 
    RBPD0      =     50 
    RBPDL      =      0 
    RBPDW      =      0 
    RBPDNF     =      0 
    RBPBX0     =    100 
    RBPBXL     =      0 
    RBPBXW     =      0 
    RBPBXNF    =      0 
    RBPBY0     =    100 
    RBPBYL     =      0 
    RBPBYW     =      0 
    RBPBYNF    =      0 
    RBSBX0     =    100 
    RBSBY0     =    100 
    RBDBX0     =    100 
    RBDBY0     =    100 
    RBSDBXL    =      0 
    RBSDBXW    =      0 
    RBSDBXNF   =      0 
    RBSDBYL    =      0 
    RBSDBYW    =      0 
    RBSDBYNF   =      0 
    LUD        =      0 
    LUD1       =      0 
    LUP        =      0 
    LLP        =      0 
    LTVOFF     =      0 
    LTVFBSDOFF =      0 
    WUD        =      0 
    WUD1       =      0 
    WUP        =      0 
    WLP        =      0 
    WTVOFF     =      0 
    WTVFBSDOFF =      0 
    PUD        =      0 
    PUD1       =      0 
    PUP        =      0 
    PLP        =      0 
    PTVOFF     =      0 
    PTVFBSDOFF =      0 
    WEB        =      0 
    WEC        =      0 
    KVTH0WE    =      0 
    K2WE       =      0 
    KU0WE      =      0 
    SCREF      =  1e-06 
    WPEMOD     =      0 
    LKVTH0WE   =      0 
    LK2WE      =      0 
    LKU0WE     =      0 
    WKVTH0WE   =      0 
    WK2WE      =      0 
    WKU0WE     =      0 
    PKVTH0WE   =      0 
    PK2WE      =      0 
    PKU0WE     =      0 
 Model file: /proj/cad/library/mosis/GF65_LPe/cmos10lpe_CDS_oa_dl064_11_20160415/models/YI-SM00030/Hspice/models/./nfet.inc
 Model line:          222
 Model Name: nfet  
 BSIM4 Model (Level 54)
    MOBMOD = 0
    BINUNIT = 1
    PARAMCHK = 0
    CAPMOD = 2
    DIOMOD = 1
    RDSMOD = 0
    TRNQSMOD = 0
    ACNQSMOD = 0
    RBODYMOD = 0
    RGATEMOD = 0
    PERMOD = 1
    GEOMOD = 0
    RGEOMOD = 0
    FNOIMOD = 1
    TNOIMOD = 0
    IGCMOD = 1
    IGBMOD = 1
    STIMOD = 1
    VBFWDMOD = 0
    VERSION =    4.5 
    TOXREF = 2.51e-09 
    TOXE = 2.6e-09 
    TOXP = 2.35e-09 
    TOXM = 2.51e-09 
    DTOX =      0 
    EPSROX =    3.9 
    CDSC =      0 
    CDSCB =      0 
    CDSCD =      0 
    CIT =      0 
    NFACTOR =  1.496 
    XJ =  1e-07 
    VSAT = 1.67e+05 
    A0 =  1.045 
    AGS =  0.589 
    A1 =      0 
    A2 =  0.598 
    AT = 0.001604 
    KETA = -0.05307 
    NSUB =  6e+16 
    NDEP = 3.181e+17 
    NSD =  1e+20 
    NGATE =  1e+21 
    GAMMA1 =      0 
    GAMMA2 =      0 
    VBX =      0 
    VBM =     -3 
    XT = 1.55e-07 
    K1 =  0.435 
    KT1 = -0.185 
    KT1L = -6e-10 
    KT2 =      0 
    K2 = -0.06627 
    K3 = -0.05758 
    K3B =      0 
    LPE0 = 4.737e-08 
    LPEB =      0 
    DVTP0 = 3.078e-07 
    DVTP1 =      0 
    W0 =  1e-09 
    DVT0 =   7.55 
    DVT1 = 0.5562 
    DVT2 = 0.04519 
    DVT0W =      0 
    DVT1W = 4.278e+05 
    DVT2W =  0.275 
    DROUT = 0.9416 
    DSUB = 0.3332 
    VTH0 = 0.4532 
    EU =   1.67 
    UA = 6.658e-11 
    UA1 =      0 
    UB = 1.717e-18 
    UB1 =      0 
    UC = 9.303e-11 
    UC1 =      0 
    U0 =    412 
    UTE = -0.9506 
    VOFF = -0.1544 
    VOFFL = -5.043e-09 
    MINV = -0.3827 
    FPROUT =  362.5 
    PDITS = 0.1388 
    PDITSD = 0.3964 
    PDITSL = 1.095e+06 
    DELTA = 0.01109 
    RDSW =    110 
    RDSWMIN =      0 
    RDWMIN =    180 
    RSWMIN =    180 
    RDW =    100 
    RSW =    100 
    PRWG =      0 
    PRWB =      0 
    PRT =      0 
    ETA0 = 0.0665 
    ETAB =      0 
    PCLM = 0.2847 
    PDIBLC1 =  1e-05 
    PDIBLC2 =  1e-05 
    PDIBLCB =      0 
    PSCBE1 =  5e+09 
    PSCBE2 =  5e-06 
    PVAG = 0.9788 
    WR =      1 
    DWG =      0 
    DWB =      0 
    XW = -5e-09 
    XWREF = -5e-09 
    XL = -3e-09 
    XLREF = -3e-09 
    B0 =      0 
    B1 =      0 
    ALPHA0 = 2.68e-12 
    ALPHA1 =      0 
    AGIDL = 4.532e-08 
    BGIDL = 2.958e+09 
    CGIDL =   0.67 
    PHIN = 0.1449 
    EGIDL =   0.01 
    AIGC = 0.01179 
    BIGC = 0.001851 
    CIGC = 0.02865 
    AIGSD = 0.009363 
    BIGSD = 0.001287 
    CIGSD = 0.05363 
    AIGBACC = 0.01246 
    BIGBACC = 0.002327 
    CIGBACC =      0 
    AIGBINV =  5.105 
    BIGBINV =   0.03 
    CIGBINV = 0.001819 
    NIGC =  2.774 
    NIGBINV =      3 
    NIGBACC =      4 
    NTOX =      1 
    EIGBINV = 0.002456 
    PIGCD =      1 
    POXEDGE =    1.3 
    XRCRG1 =     12 
    TNOIA =    1.5 
    TNOIB =    3.5 
    NTNOI =  1.554 
    XRCRG2 =      1 
    BETA0 =      2 
    IJTHDFWD = 0.001854 
    IJTHSFWD = 0.001854 
    IJTHDREV =    0.1 
    IJTHSREV =    0.1 
    XJBVD =      1 
    XJBVS =      1 
    BVD =     10 
    BVS =     10 
    VFB =     -1 
    GBMIN =  1e-12 
    RBDB =     50 
    RBPB =     50 
    RBSB =     50 
    RBPS =     50 
    RBPD =     50 
    CGSL = 1.64e-10 
    CGDL = 1.64e-10 
    CKAPPAS =    1.4 
    CKAPPAD =    1.4 
    CF =      0 
    CLC =      0 
    CLE =    0.6 
    DWC = -8e-09 
    DLC = 9.64e-09 
    DLCIG = 7.5e-09 
    DWJ =      0 
    VFBCV =     -1 
    ACDE = 0.3088 
    MOIN =  8.385 
    NOFF =  2.321 
    VOFFCV = -0.1546 
    DMCG =  1e-07 
    DMCI = 7.5e-08 
    DMDG =  1e-07 
    DMCGT =      0 
    XGW =      0 
    XGL =  5e-09 
    RSHG =     11 
    NGCON =      1 
    TCJ = 0.0008904 
    TPB = 0.001285 
    TCJSW = 0.001056 
    TPBSW = 0.0004388 
    TCJSWG = 0.0008402 
    TPBSWG = 0.001039 
    SK0 =      0 
    SK1 =      0 
    SK2 =      0 
    SL =  2e-06 
    SW =  2e-06 
    K =      0 
    LNFACTOR = 0.1398 
    LAGS =   -0.1 
    LLPE0 = 1.84e-09 
    LLPEB =  1e-35 
    LMINV = -0.00679 
    PVSAT =    130 
    PU0 =   0.05 
    TNOM =  298.1 
    CGSO = 8.2e-11 
    CGDO = 8.2e-11 
    CGBO =  1e-12 
    XPART =      0 
    RSH =     12 
    JSS = 5.603e-07 
    JSWS = 1.641e-13 
    JSWGS = 2.339e-13 
    PBS =      1 
    MJS =  0.613 
    PBSWS =    0.1 
    MJSWS = 0.09162 
    CJS = 0.00137 
    CJSWS = 6.266e-11 
    NJS =      1 
    PBSWGS =  1.118 
    MJSWGS = 0.9845 
    CJSWGS = 2.2e-10 
    XTIS =      3 
    JSD = 5.603e-07 
    JSWD = 1.641e-13 
    JSWGD = 2.339e-13 
    PBD =      1 
    MJD =  0.613 
    PBSWD =    0.1 
    MJSWD = 0.09162 
    CJD = 0.00137 
    CJSWD = 6.266e-11 
    NJD =      1 
    PBSWGD =  1.118 
    MJSWGD = 0.9845 
    CJSWGD = 2.2e-10 
    XTID =      3 
    LMLT =      1 
    WMLT =      1 
    LINT =      0 
    LL =      0 
    LLC =      0 
    LLN =      1 
    LW =      0 
    LWC =      0 
    LWN =      1 
    LWL =      0 
    LWLC =      0 
    LMIN =  6e-08 
    LMAX = 0.0001 
    WINT =      0 
    WL =      0 
    WLC =      0 
    WLN =      1 
    WW =      0 
    WWC =      0 
    WWN =      1 
    WWL =      0 
    WWLC =      0 
    WMIN = 1.2e-07 
    WMAX =      1 
    NOIA = 1.55e+42 
    NOIB = 2.11e+25 
    NOIC = 4.62e+07 
    EM = 4.1e+07 
    EF = 0.9178 
    AF =      1 
    KF = 1.2e-27 
    TRS =      0 
    TRD =      0 
    TEMPMOD  =      1 
    LAMBDA   =      0 
    VTL      =  2e+05 m/s
    LC       =  5e-09 
    XN       =      3 
    LLAMBDA  =      0 
    LVTL     =      0 
    LXN      =      0 
    WLAMBDA  =      0 
    WVTL     =      0 
    WXN      =      0 
    PLAMBDA  =      0 
    PVTL     =      0 
    PXN      =      0 
    RNOIA    =  0.577 
    RNOIB    = 0.5164 
    SAREF(SA0) = 4.5e-07 m
    SBREF(SB0) = 4.5e-07 m
    WLOD     =      0 m
    KU0      = -2.2e-09 1/m
    KVSAT    =      1 
    KVTH0    = 1.6e-09 m
    TKU0     =      0 
    LLODKU0  =      0 
    WLODKU0  =      0 
    LLODVTH  =      0 
    WLODVTH  =      0 
    LKU0     =      0 
    WKU0     =      0 
    PKU0     =      0 
    LKVTH0   =      0 
    WKVTH0   =      0 
    PKVTH0   =      0 
    STK2     =      0 
    LODK2    =      1 
    STETA0   =      0 
    LODETA0  =      1 
    LXRCRG1  =      0 
    WXRCRG1  =      0 
    PXRCRG1  =      0 
    LXRCRG2  =      0 
    WXRCRG2  =      0 
    PXRCRG2  =      0 
     *** UCB's BSIM4.4.0 new diode model is activated. ***
    *** UCB's Diode Model Parameters ***
    JTSS         =      0 
    JTSSWS       =      0 
    JTSSWGS      = 1.5e-09 
    JTSD         =      0 
    JTSSWD       =      0 
    JTSSWGD      = 1.5e-09 
    NJTS         =     20 
    NJTSSW       =     20 
    NJTSSWG      =     20 
    XTSS         =   0.02 
    XTSSWS       =   0.02 
    XTSSWGS      =   0.02 
    XTSD         =   0.02 
    XTSSWD       =   0.02 
    XTSSWGD      =   0.02 
    TNJTS        =      0 
    TNJTSSW      =      0 
    TNJTSSWG     =      0 
    VFBSDOFF     =      0 
    LVFBSDOFF    =      0 
    WVFBSDOFF    =      0 
    PVFBSDOFF    =      0 
    LINTNOI      = -3.68e-08 
    VTSS         =     10 
    VTSD         =     10 
    VTSSWS       =     10 
    VTSSWD       =     10 
    VTSSWGS      =     10 
    VTSSWGD      =     10 
    TTDIOMOD     =      1 
     *** UCB's BSIM4.5.0 new model is activated. ***
    UD         =      0 
    UD1        =      0 
    UP         =      0 
    LP         = 1.872e-08 
    TVOFF      =      0 
    TVFBSDOFF  =      0 
    RBPS0      =     50 
    RBPSL      =      0 
    RBPSW      =      0 
    RBPSNF     =      0 
    RBPD0      =     50 
    RBPDL      =      0 
    RBPDW      =      0 
    RBPDNF     =      0 
    RBPBX0     =    100 
    RBPBXL     =      0 
    RBPBXW     =      0 
    RBPBXNF    =      0 
    RBPBY0     =    100 
    RBPBYL     =      0 
    RBPBYW     =      0 
    RBPBYNF    =      0 
    RBSBX0     =    100 
    RBSBY0     =    100 
    RBDBX0     =    100 
    RBDBY0     =    100 
    RBSDBXL    =      0 
    RBSDBXW    =      0 
    RBSDBXNF   =      0 
    RBSDBYL    =      0 
    RBSDBYW    =      0 
    RBSDBYNF   =      0 
    LUD        =      0 
    LUD1       =      0 
    LUP        =      0 
    LLP        =      0 
    LTVOFF     =      0 
    LTVFBSDOFF =      0 
    WUD        =      0 
    WUD1       =      0 
    WUP        =      0 
    WLP        =      0 
    WTVOFF     =      0 
    WTVFBSDOFF =      0 
    PUD        =      0 
    PUD1       =      0 
    PUP        =      0 
    PLP        =      0 
    PTVOFF     =      0 
    PTVFBSDOFF =      0 
    WEB        =      0 
    WEC        =      0 
    KVTH0WE    =      0 
    K2WE       =      0 
    KU0WE      =      0 
    SCREF      =  1e-06 
    WPEMOD     =      0 
    LKVTH0WE   =      0 
    LK2WE      =      0 
    LKU0WE     =      0 
    WKVTH0WE   =      0 
    WK2WE      =      0 
    WKU0WE     =      0 
    PKVTH0WE   =      0 
    PK2WE      =      0 
    PKU0WE     =      0 
 Model file: /proj/cad/library/mosis/GF65_LPe/cmos10lpe_CDS_oa_dl064_11_20160415/models/YI-SM00030/Hspice/models/./nfet.inc
 Model line:          222
 Model Name: nfet  
 BSIM4 Model (Level 54)
    MOBMOD = 0
    BINUNIT = 1
    PARAMCHK = 0
    CAPMOD = 2
    DIOMOD = 1
    RDSMOD = 0
    TRNQSMOD = 0
    ACNQSMOD = 0
    RBODYMOD = 0
    RGATEMOD = 0
    PERMOD = 1
    GEOMOD = 0
    RGEOMOD = 0
    FNOIMOD = 1
    TNOIMOD = 0
    IGCMOD = 1
    IGBMOD = 1
    STIMOD = 1
    VBFWDMOD = 0
    VERSION =    4.5 
    TOXREF = 2.51e-09 
    TOXE = 2.6e-09 
    TOXP = 2.35e-09 
    TOXM = 2.51e-09 
    DTOX =      0 
    EPSROX =    3.9 
    CDSC =      0 
    CDSCB =      0 
    CDSCD =      0 
    CIT =      0 
    NFACTOR =  1.496 
    XJ =  1e-07 
    VSAT = 1.67e+05 
    A0 =  1.045 
    AGS =  0.589 
    A1 =      0 
    A2 =  0.598 
    AT = 0.001604 
    KETA = -0.05307 
    NSUB =  6e+16 
    NDEP = 3.181e+17 
    NSD =  1e+20 
    NGATE =  1e+21 
    GAMMA1 =      0 
    GAMMA2 =      0 
    VBX =      0 
    VBM =     -3 
    XT = 1.55e-07 
    K1 =  0.435 
    KT1 = -0.185 
    KT1L = -6e-10 
    KT2 =      0 
    K2 = -0.06627 
    K3 = -0.05758 
    K3B =      0 
    LPE0 = 4.737e-08 
    LPEB =      0 
    DVTP0 = 3.078e-07 
    DVTP1 =      0 
    W0 =  1e-09 
    DVT0 =   7.55 
    DVT1 = 0.5562 
    DVT2 = 0.04519 
    DVT0W =      0 
    DVT1W = 4.278e+05 
    DVT2W =  0.275 
    DROUT = 0.9416 
    DSUB = 0.3332 
    VTH0 = 0.4532 
    EU =   1.67 
    UA = 6.658e-11 
    UA1 =      0 
    UB = 1.717e-18 
    UB1 =      0 
    UC = 9.303e-11 
    UC1 =      0 
    U0 =    412 
    UTE = -0.9506 
    VOFF = -0.1544 
    VOFFL = -5.043e-09 
    MINV = -0.3827 
    FPROUT =  362.5 
    PDITS = 0.1388 
    PDITSD = 0.3964 
    PDITSL = 1.095e+06 
    DELTA = 0.01109 
    RDSW =    110 
    RDSWMIN =      0 
    RDWMIN =    180 
    RSWMIN =    180 
    RDW =    100 
    RSW =    100 
    PRWG =      0 
    PRWB =      0 
    PRT =      0 
    ETA0 = 0.0665 
    ETAB =      0 
    PCLM = 0.2847 
    PDIBLC1 =  1e-05 
    PDIBLC2 =  1e-05 
    PDIBLCB =      0 
    PSCBE1 =  5e+09 
    PSCBE2 =  5e-06 
    PVAG = 0.9788 
    WR =      1 
    DWG =      0 
    DWB =      0 
    XW = -5e-09 
    XWREF = -5e-09 
    XL = -3e-09 
    XLREF = -3e-09 
    B0 =      0 
    B1 =      0 
    ALPHA0 = 2.68e-12 
    ALPHA1 =      0 
    AGIDL = 4.532e-08 
    BGIDL = 2.958e+09 
    CGIDL =   0.67 
    PHIN = 0.1449 
    EGIDL =   0.01 
    AIGC = 0.01179 
    BIGC = 0.001851 
    CIGC = 0.02865 
    AIGSD = 0.009363 
    BIGSD = 0.001287 
    CIGSD = 0.05363 
    AIGBACC = 0.01246 
    BIGBACC = 0.002327 
    CIGBACC =      0 
    AIGBINV =  5.105 
    BIGBINV =   0.03 
    CIGBINV = 0.001819 
    NIGC =  2.774 
    NIGBINV =      3 
    NIGBACC =      4 
    NTOX =      1 
    EIGBINV = 0.002456 
    PIGCD =      1 
    POXEDGE =    1.3 
    XRCRG1 =     12 
    TNOIA =    1.5 
    TNOIB =    3.5 
    NTNOI =  1.554 
    XRCRG2 =      1 
    BETA0 =      2 
    IJTHDFWD = 0.001854 
    IJTHSFWD = 0.001854 
    IJTHDREV =    0.1 
    IJTHSREV =    0.1 
    XJBVD =      1 
    XJBVS =      1 
    BVD =     10 
    BVS =     10 
    VFB =     -1 
    GBMIN =  1e-12 
    RBDB =     50 
    RBPB =     50 
    RBSB =     50 
    RBPS =     50 
    RBPD =     50 
    CGSL = 1.64e-10 
    CGDL = 1.64e-10 
    CKAPPAS =    1.4 
    CKAPPAD =    1.4 
    CF =      0 
    CLC =      0 
    CLE =    0.6 
    DWC = -8e-09 
    DLC = 9.64e-09 
    DLCIG = 7.5e-09 
    DWJ =      0 
    VFBCV =     -1 
    ACDE = 0.3088 
    MOIN =  8.385 
    NOFF =  2.321 
    VOFFCV = -0.1546 
    DMCG =  1e-07 
    DMCI = 7.5e-08 
    DMDG =  1e-07 
    DMCGT =      0 
    XGW =      0 
    XGL =  5e-09 
    RSHG =     11 
    NGCON =      1 
    TCJ = 0.0008904 
    TPB = 0.001285 
    TCJSW = 0.001056 
    TPBSW = 0.0004388 
    TCJSWG = 0.0008402 
    TPBSWG = 0.001039 
    SK0 =      0 
    SK1 =      0 
    SK2 =      0 
    SL =  2e-06 
    SW =  2e-06 
    K =      0 
    LNFACTOR = 0.1398 
    LAGS =   -0.1 
    LLPE0 = 1.84e-09 
    LLPEB =  1e-35 
    LMINV = -0.00679 
    PVSAT =    130 
    PU0 =   0.05 
    TNOM =  298.1 
    CGSO = 8.2e-11 
    CGDO = 8.2e-11 
    CGBO =  1e-12 
    XPART =      0 
    RSH =     12 
    JSS = 5.603e-07 
    JSWS = 1.641e-13 
    JSWGS = 2.339e-13 
    PBS =      1 
    MJS =  0.613 
    PBSWS =    0.1 
    MJSWS = 0.09162 
    CJS = 0.00137 
    CJSWS = 6.266e-11 
    NJS =      1 
    PBSWGS =  1.118 
    MJSWGS = 0.9845 
    CJSWGS = 2.2e-10 
    XTIS =      3 
    JSD = 5.603e-07 
    JSWD = 1.641e-13 
    JSWGD = 2.339e-13 
    PBD =      1 
    MJD =  0.613 
    PBSWD =    0.1 
    MJSWD = 0.09162 
    CJD = 0.00137 
    CJSWD = 6.266e-11 
    NJD =      1 
    PBSWGD =  1.118 
    MJSWGD = 0.9845 
    CJSWGD = 2.2e-10 
    XTID =      3 
    LMLT =      1 
    WMLT =      1 
    LINT =      0 
    LL =      0 
    LLC =      0 
    LLN =      1 
    LW =      0 
    LWC =      0 
    LWN =      1 
    LWL =      0 
    LWLC =      0 
    LMIN =  6e-08 
    LMAX = 0.0001 
    WINT =      0 
    WL =      0 
    WLC =      0 
    WLN =      1 
    WW =      0 
    WWC =      0 
    WWN =      1 
    WWL =      0 
    WWLC =      0 
    WMIN = 1.2e-07 
    WMAX =      1 
    NOIA = 1.55e+42 
    NOIB = 2.11e+25 
    NOIC = 4.62e+07 
    EM = 4.1e+07 
    EF = 0.9178 
    AF =      1 
    KF = 1.2e-27 
    TRS =      0 
    TRD =      0 
    TEMPMOD  =      1 
    LAMBDA   =      0 
    VTL      =  2e+05 m/s
    LC       =  5e-09 
    XN       =      3 
    LLAMBDA  =      0 
    LVTL     =      0 
    LXN      =      0 
    WLAMBDA  =      0 
    WVTL     =      0 
    WXN      =      0 
    PLAMBDA  =      0 
    PVTL     =      0 
    PXN      =      0 
    RNOIA    =  0.577 
    RNOIB    = 0.5164 
    SAREF(SA0) = 4.5e-07 m
    SBREF(SB0) = 4.5e-07 m
    WLOD     =      0 m
    KU0      = -2.2e-09 1/m
    KVSAT    =      1 
    KVTH0    = 1.6e-09 m
    TKU0     =      0 
    LLODKU0  =      0 
    WLODKU0  =      0 
    LLODVTH  =      0 
    WLODVTH  =      0 
    LKU0     =      0 
    WKU0     =      0 
    PKU0     =      0 
    LKVTH0   =      0 
    WKVTH0   =      0 
    PKVTH0   =      0 
    STK2     =      0 
    LODK2    =      1 
    STETA0   =      0 
    LODETA0  =      1 
    LXRCRG1  =      0 
    WXRCRG1  =      0 
    PXRCRG1  =      0 
    LXRCRG2  =      0 
    WXRCRG2  =      0 
    PXRCRG2  =      0 
     *** UCB's BSIM4.4.0 new diode model is activated. ***
    *** UCB's Diode Model Parameters ***
    JTSS         =      0 
    JTSSWS       =      0 
    JTSSWGS      = 1.5e-09 
    JTSD         =      0 
    JTSSWD       =      0 
    JTSSWGD      = 1.5e-09 
    NJTS         =     20 
    NJTSSW       =     20 
    NJTSSWG      =     20 
    XTSS         =   0.02 
    XTSSWS       =   0.02 
    XTSSWGS      =   0.02 
    XTSD         =   0.02 
    XTSSWD       =   0.02 
    XTSSWGD      =   0.02 
    TNJTS        =      0 
    TNJTSSW      =      0 
    TNJTSSWG     =      0 
    VFBSDOFF     =      0 
    LVFBSDOFF    =      0 
    WVFBSDOFF    =      0 
    PVFBSDOFF    =      0 
    LINTNOI      = -3.68e-08 
    VTSS         =     10 
    VTSD         =     10 
    VTSSWS       =     10 
    VTSSWD       =     10 
    VTSSWGS      =     10 
    VTSSWGD      =     10 
    TTDIOMOD     =      1 
     *** UCB's BSIM4.5.0 new model is activated. ***
    UD         =      0 
    UD1        =      0 
    UP         =      0 
    LP         = 1.872e-08 
    TVOFF      =      0 
    TVFBSDOFF  =      0 
    RBPS0      =     50 
    RBPSL      =      0 
    RBPSW      =      0 
    RBPSNF     =      0 
    RBPD0      =     50 
    RBPDL      =      0 
    RBPDW      =      0 
    RBPDNF     =      0 
    RBPBX0     =    100 
    RBPBXL     =      0 
    RBPBXW     =      0 
    RBPBXNF    =      0 
    RBPBY0     =    100 
    RBPBYL     =      0 
    RBPBYW     =      0 
    RBPBYNF    =      0 
    RBSBX0     =    100 
    RBSBY0     =    100 
    RBDBX0     =    100 
    RBDBY0     =    100 
    RBSDBXL    =      0 
    RBSDBXW    =      0 
    RBSDBXNF   =      0 
    RBSDBYL    =      0 
    RBSDBYW    =      0 
    RBSDBYNF   =      0 
    LUD        =      0 
    LUD1       =      0 
    LUP        =      0 
    LLP        =      0 
    LTVOFF     =      0 
    LTVFBSDOFF =      0 
    WUD        =      0 
    WUD1       =      0 
    WUP        =      0 
    WLP        =      0 
    WTVOFF     =      0 
    WTVFBSDOFF =      0 
    PUD        =      0 
    PUD1       =      0 
    PUP        =      0 
    PLP        =      0 
    PTVOFF     =      0 
    PTVFBSDOFF =      0 
    WEB        =      0 
    WEC        =      0 
    KVTH0WE    =      0 
    K2WE       =      0 
    KU0WE      =      0 
    SCREF      =  1e-06 
    WPEMOD     =      0 
    LKVTH0WE   =      0 
    LK2WE      =      0 
    LKU0WE     =      0 
    WKVTH0WE   =      0 
    WK2WE      =      0 
    WKU0WE     =      0 
    PKVTH0WE   =      0 
    PK2WE      =      0 
    PKU0WE     =      0 
 Model file: /proj/cad/library/mosis/GF65_LPe/cmos10lpe_CDS_oa_dl064_11_20160415/models/YI-SM00030/Hspice/models/./nfet.inc
 Model line:          222
 Model Name: nfet  
 BSIM4 Model (Level 54)
    MOBMOD = 0
    BINUNIT = 1
    PARAMCHK = 0
    CAPMOD = 2
    DIOMOD = 1
    RDSMOD = 0
    TRNQSMOD = 0
    ACNQSMOD = 0
    RBODYMOD = 0
    RGATEMOD = 0
    PERMOD = 1
    GEOMOD = 0
    RGEOMOD = 0
    FNOIMOD = 1
    TNOIMOD = 0
    IGCMOD = 1
    IGBMOD = 1
    STIMOD = 1
    VBFWDMOD = 0
    VERSION =    4.5 
    TOXREF = 2.51e-09 
    TOXE = 2.6e-09 
    TOXP = 2.35e-09 
    TOXM = 2.51e-09 
    DTOX =      0 
    EPSROX =    3.9 
    CDSC =      0 
    CDSCB =      0 
    CDSCD =      0 
    CIT =      0 
    NFACTOR =  1.496 
    XJ =  1e-07 
    VSAT = 1.67e+05 
    A0 =  1.045 
    AGS =  0.589 
    A1 =      0 
    A2 =  0.598 
    AT = 0.001604 
    KETA = -0.05307 
    NSUB =  6e+16 
    NDEP = 3.181e+17 
    NSD =  1e+20 
    NGATE =  1e+21 
    GAMMA1 =      0 
    GAMMA2 =      0 
    VBX =      0 
    VBM =     -3 
    XT = 1.55e-07 
    K1 =  0.435 
    KT1 = -0.185 
    KT1L = -6e-10 
    KT2 =      0 
    K2 = -0.06627 
    K3 = -0.05758 
    K3B =      0 
    LPE0 = 4.737e-08 
    LPEB =      0 
    DVTP0 = 3.078e-07 
    DVTP1 =      0 
    W0 =  1e-09 
    DVT0 =   7.55 
    DVT1 = 0.5562 
    DVT2 = 0.04519 
    DVT0W =      0 
    DVT1W = 4.278e+05 
    DVT2W =  0.275 
    DROUT = 0.9416 
    DSUB = 0.3332 
    VTH0 = 0.4532 
    EU =   1.67 
    UA = 6.658e-11 
    UA1 =      0 
    UB = 1.717e-18 
    UB1 =      0 
    UC = 9.303e-11 
    UC1 =      0 
    U0 =    412 
    UTE = -0.9506 
    VOFF = -0.1544 
    VOFFL = -5.043e-09 
    MINV = -0.3827 
    FPROUT =  362.5 
    PDITS = 0.1388 
    PDITSD = 0.3964 
    PDITSL = 1.095e+06 
    DELTA = 0.01109 
    RDSW =    110 
    RDSWMIN =      0 
    RDWMIN =    180 
    RSWMIN =    180 
    RDW =    100 
    RSW =    100 
    PRWG =      0 
    PRWB =      0 
    PRT =      0 
    ETA0 = 0.0665 
    ETAB =      0 
    PCLM = 0.2847 
    PDIBLC1 =  1e-05 
    PDIBLC2 =  1e-05 
    PDIBLCB =      0 
    PSCBE1 =  5e+09 
    PSCBE2 =  5e-06 
    PVAG = 0.9788 
    WR =      1 
    DWG =      0 
    DWB =      0 
    XW = -5e-09 
    XWREF = -5e-09 
    XL = -3e-09 
    XLREF = -3e-09 
    B0 =      0 
    B1 =      0 
    ALPHA0 = 2.68e-12 
    ALPHA1 =      0 
    AGIDL = 4.532e-08 
    BGIDL = 2.958e+09 
    CGIDL =   0.67 
    PHIN = 0.1449 
    EGIDL =   0.01 
    AIGC = 0.01179 
    BIGC = 0.001851 
    CIGC = 0.02865 
    AIGSD = 0.009363 
    BIGSD = 0.001287 
    CIGSD = 0.05363 
    AIGBACC = 0.01246 
    BIGBACC = 0.002327 
    CIGBACC =      0 
    AIGBINV =  5.105 
    BIGBINV =   0.03 
    CIGBINV = 0.001819 
    NIGC =  2.774 
    NIGBINV =      3 
    NIGBACC =      4 
    NTOX =      1 
    EIGBINV = 0.002456 
    PIGCD =      1 
    POXEDGE =    1.3 
    XRCRG1 =     12 
    TNOIA =    1.5 
    TNOIB =    3.5 
    NTNOI =  1.554 
    XRCRG2 =      1 
    BETA0 =      2 
    IJTHDFWD = 0.001854 
    IJTHSFWD = 0.001854 
    IJTHDREV =    0.1 
    IJTHSREV =    0.1 
    XJBVD =      1 
    XJBVS =      1 
    BVD =     10 
    BVS =     10 
    VFB =     -1 
    GBMIN =  1e-12 
    RBDB =     50 
    RBPB =     50 
    RBSB =     50 
    RBPS =     50 
    RBPD =     50 
    CGSL = 1.64e-10 
    CGDL = 1.64e-10 
    CKAPPAS =    1.4 
    CKAPPAD =    1.4 
    CF =      0 
    CLC =      0 
    CLE =    0.6 
    DWC = -8e-09 
    DLC = 9.64e-09 
    DLCIG = 7.5e-09 
    DWJ =      0 
    VFBCV =     -1 
    ACDE = 0.3088 
    MOIN =  8.385 
    NOFF =  2.321 
    VOFFCV = -0.1546 
    DMCG =  1e-07 
    DMCI = 7.5e-08 
    DMDG =  1e-07 
    DMCGT =      0 
    XGW =      0 
    XGL =  5e-09 
    RSHG =     11 
    NGCON =      1 
    TCJ = 0.0008904 
    TPB = 0.001285 
    TCJSW = 0.001056 
    TPBSW = 0.0004388 
    TCJSWG = 0.0008402 
    TPBSWG = 0.001039 
    SK0 =      0 
    SK1 =      0 
    SK2 =      0 
    SL =  2e-06 
    SW =  2e-06 
    K =      0 
    LNFACTOR = 0.1398 
    LAGS =   -0.1 
    LLPE0 = 1.84e-09 
    LLPEB =  1e-35 
    LMINV = -0.00679 
    PVSAT =    130 
    PU0 =   0.05 
    TNOM =  298.1 
    CGSO = 8.2e-11 
    CGDO = 8.2e-11 
    CGBO =  1e-12 
    XPART =      0 
    RSH =     12 
    JSS = 5.603e-07 
    JSWS = 1.641e-13 
    JSWGS = 2.339e-13 
    PBS =      1 
    MJS =  0.613 
    PBSWS =    0.1 
    MJSWS = 0.09162 
    CJS = 0.00137 
    CJSWS = 6.266e-11 
    NJS =      1 
    PBSWGS =  1.118 
    MJSWGS = 0.9845 
    CJSWGS = 2.2e-10 
    XTIS =      3 
    JSD = 5.603e-07 
    JSWD = 1.641e-13 
    JSWGD = 2.339e-13 
    PBD =      1 
    MJD =  0.613 
    PBSWD =    0.1 
    MJSWD = 0.09162 
[...]
 edp2= 6.5146e-22

          ***** job concluded
 **info** dc convergence successful at Newton-Raphson method 

   *** parameter t1 =    5.685E-09 ***

 ******
 $example hspice setup file

 ****** transient analysis tnom=  25.000 temp=  25.000 ******
 trise=   4.2842n  targ=   6.2592n   trig=   1.9750n
 tfall=   1.1572n  targ=   2.1822n   trig=   1.0250n
 tavg=   2.7207n
 tdiff=   3.1271n
 delay=   4.2842n
 iavg= -19.4977u  from=   0.             to=  10.0000n
 energy=-233.9725f
 edp1= 1.0024e-21
 t1=   1.9504n
 t2=   6.7545n
 t3=   1.0004n
 t4=   2.4788n
 i1= -89.1716u  from=   5.6850n     to=   6.7545n
 i2= -21.1991u  from=   1.0004n     to=   2.4788n
 energy1=-114.4443f
 energy2= -37.6088f
 energysum=-152.0531f
 edp2= 6.5143e-22

          ***** job concluded
 **info** dc convergence successful at Newton-Raphson method 

   *** parameter t1 =    5.690E-09 ***

 ******
 $example hspice setup file

 ****** transient analysis tnom=  25.000 temp=  25.000 ******
 trise=   4.2844n  targ=   6.2594n   trig=   1.9750n
 tfall=   1.1572n  targ=   2.1822n   trig=   1.0250n
 tavg=   2.7208n
 tdiff=   3.1272n
 delay=   4.2844n
 iavg= -19.5135u  from=   0.             to=  10.0000n
 energy=-234.1622f
 edp1= 1.0032e-21
 t1=   1.9504n
 t2=   6.7568n
 t3=   1.0004n
 t4=   2.4788n
 i1= -89.5244u  from=   5.6900n     to=   6.7568n
 i2= -21.1991u  from=   1.0004n     to=   2.4788n
 energy1=-114.6098f
 energy2= -37.6088f
 energysum=-152.2186f
 edp2= 6.5216e-22

          ***** job concluded
 **info** dc convergence successful at Newton-Raphson method 

   *** parameter t1 =    5.695E-09 ***

 ******
 $example hspice setup file

 ****** transient analysis tnom=  25.000 temp=  25.000 ******
 trise=   4.2843n  targ=   6.2593n   trig=   1.9750n
 tfall=   1.1572n  targ=   2.1822n   trig=   1.0250n
 tavg=   2.7207n
 tdiff=   3.1271n
 delay=   4.2843n
 iavg= -19.5088u  from=   0.             to=  10.0000n
 energy=-234.1052f
 edp1= 1.0030e-21
 t1=   1.9504n
 t2=   6.7602n
 t3=   1.0004n
 t4=   2.4788n
 i1= -89.6561u  from=   5.6950n     to=   6.7602n
 i2= -21.1991u  from=   1.0004n     to=   2.4788n
 energy1=-114.5986f
 energy2= -37.6088f
 energysum=-152.2074f
 edp2= 6.5210e-22

          ***** job concluded
 **info** dc convergence successful at Newton-Raphson method 

   *** parameter t1 =    5.700E-09 ***

 ******
 $example hspice setup file

 ****** transient analysis tnom=  25.000 temp=  25.000 ******
 trise=   4.2841n  targ=   6.2591n   trig=   1.9750n
 tfall=   1.1572n  targ=   2.1822n   trig=   1.0250n
 tavg=   2.7206n
 tdiff=   3.1269n
 delay=   4.2841n
 iavg= -19.5004u  from=   0.             to=  10.0000n
 energy=-234.0052f
 edp1= 1.0025e-21
 t1=   1.9504n
 t2=   6.7556n
 t3=   1.0004n
 t4=   2.4788n
 i1= -90.3489u  from=   5.7000n     to=   6.7556n
 i2= -21.1991u  from=   1.0004n     to=   2.4788n
 energy1=-114.4510f
 energy2= -37.6088f
 energysum=-152.0598f
 edp2= 6.5143e-22

          ***** job concluded
 **info** dc convergence successful at Newton-Raphson method 

   *** parameter t1 =    5.705E-09 ***

 ******
 $example hspice setup file

 ****** transient analysis tnom=  25.000 temp=  25.000 ******
 trise=   4.2841n  targ=   6.2591n   trig=   1.9750n
 tfall=   1.1572n  targ=   2.1822n   trig=   1.0250n
 tavg=   2.7206n
 tdiff=   3.1269n
 delay=   4.2841n
 iavg= -19.4991u  from=   0.             to=  10.0000n
 energy=-233.9889f
 edp1= 1.0024e-21
 t1=   1.9504n
 t2=   6.7555n
 t3=   1.0004n
 t4=   2.4788n
 i1= -90.7853u  from=   5.7050n     to=   6.7555n
 i2= -21.1991u  from=   1.0004n     to=   2.4788n
 energy1=-114.4470f
 energy2= -37.6088f
 energysum=-152.0558f
 edp2= 6.5142e-22

          ***** job concluded
 **info** dc convergence successful at Newton-Raphson method 

   *** parameter t1 =    5.710E-09 ***

 ******
 $example hspice setup file

 ****** transient analysis tnom=  25.000 temp=  25.000 ******
 trise=   4.2841n  targ=   6.2591n   trig=   1.9750n
 tfall=   1.1572n  targ=   2.1822n   trig=   1.0250n
 tavg=   2.7206n
 tdiff=   3.1269n
 delay=   4.2841n
 iavg= -19.5043u  from=   0.             to=  10.0000n
 energy=-234.0513f
 edp1= 1.0027e-21
 t1=   1.9504n
 t2=   6.7557n
 t3=   1.0004n
 t4=   2.4788n
 i1= -91.2164u  from=   5.7100n     to=   6.7557n
 i2= -21.1991u  from=   1.0004n     to=   2.4788n
 energy1=-114.4603f
 energy2= -37.6088f
 energysum=-152.0691f
 edp2= 6.5148e-22

          ***** job concluded
 **info** dc convergence successful at Newton-Raphson method 

   *** parameter t1 =    5.715E-09 ***

 ******
 $example hspice setup file

 ****** transient analysis tnom=  25.000 temp=  25.000 ******
 trise=   4.2843n  targ=   6.2593n   trig=   1.9750n
 tfall=   1.1572n  targ=   2.1822n   trig=   1.0250n
 tavg=   2.7207n
 tdiff=   3.1271n
 delay=   4.2843n
 iavg= -19.5027u  from=   0.             to=  10.0000n
 energy=-234.0326f
 edp1= 1.0027e-21
 t1=   1.9504n
 t2=   6.7542n
 t3=   1.0004n
 t4=   2.4788n
 i1= -91.7751u  from=   5.7150n     to=   6.7542n
 i2= -21.1991u  from=   1.0004n     to=   2.4788n
 energy1=-114.4458f
 energy2= -37.6088f
 energysum=-152.0546f
 edp2= 6.5144e-22

          ***** job concluded
 **info** dc convergence successful at Newton-Raphson method 

   *** parameter t1 =    5.720E-09 ***

 ******
 $example hspice setup file

 ****** transient analysis tnom=  25.000 temp=  25.000 ******
 trise=   4.2841n  targ=   6.2591n   trig=   1.9750n
 tfall=   1.1572n  targ=   2.1822n   trig=   1.0250n
 tavg=   2.7206n
 tdiff=   3.1269n
 delay=   4.2841n
 iavg= -19.5035u  from=   0.             to=  10.0000n
 energy=-234.0419f
 edp1= 1.0027e-21
 t1=   1.9504n
 t2=   6.7556n
 t3=   1.0004n
 t4=   2.4788n
 i1= -92.1018u  from=   5.7200n     to=   6.7556n
 i2= -21.1991u  from=   1.0004n     to=   2.4788n
 energy1=-114.4600f
 energy2= -37.6088f
 energysum=-152.0688f
 edp2= 6.5148e-22

          ***** job concluded
 **info** dc convergence successful at Newton-Raphson method 

   *** parameter t1 =    5.725E-09 ***

 ******
 $example hspice setup file

 ****** transient analysis tnom=  25.000 temp=  25.000 ******
 trise=   4.2843n  targ=   6.2593n   trig=   1.9750n
 tfall=   1.1572n  targ=   2.1822n   trig=   1.0250n
 tavg=   2.7207n
 tdiff=   3.1271n
 delay=   4.2843n
 iavg= -19.4999u  from=   0.             to=  10.0000n
 energy=-233.9988f
 edp1= 1.0025e-21
 t1=   1.9504n
 t2=   6.7544n
 t3=   1.0004n
 t4=   2.4788n
 i1= -92.6630u  from=   5.7250n     to=   6.7544n
 i2= -21.1991u  from=   1.0004n     to=   2.4788n
 energy1=-114.4691f
 energy2= -37.6088f
 energysum=-152.0779f
 edp2= 6.5155e-22

          ***** job concluded
 **info** dc convergence successful at Newton-Raphson method 

   *** parameter t1 =    5.730E-09 ***

 ******
 $example hspice setup file

 ****** transient analysis tnom=  25.000 temp=  25.000 ******
 trise=   4.2841n  targ=   6.2591n   trig=   1.9750n
 tfall=   1.1572n  targ=   2.1822n   trig=   1.0250n
 tavg=   2.7206n
 tdiff=   3.1270n
 delay=   4.2841n
 iavg= -19.5008u  from=   0.             to=  10.0000n
 energy=-234.0099f
 edp1= 1.0025e-21
 t1=   1.9504n
 t2=   6.7556n
 t3=   1.0004n
 t4=   2.4788n
 i1= -92.9923u  from=   5.7300n     to=   6.7556n
 i2= -21.1991u  from=   1.0004n     to=   2.4788n
 energy1=-114.4503f
 energy2= -37.6088f
 energysum=-152.0591f
 edp2= 6.5144e-22

          ***** job concluded
 **info** dc convergence successful at Newton-Raphson method 

   *** parameter t1 =    5.735E-09 ***

 ******
 $example hspice setup file

 ****** transient analysis tnom=  25.000 temp=  25.000 ******
 trise=   4.2843n  targ=   6.2593n   trig=   1.9750n
 tfall=   1.1572n  targ=   2.1822n   trig=   1.0250n
 tavg=   2.7207n
 tdiff=   3.1272n
 delay=   4.2843n
 iavg= -19.5099u  from=   0.             to=  10.0000n
 energy=-234.1190f
 edp1= 1.0030e-21
 t1=   1.9504n
 t2=   6.7605n
 t3=   1.0004n
 t4=   2.4788n
 i1= -93.1288u  from=   5.7350n     to=   6.7605n
 i2= -21.1991u  from=   1.0004n     to=   2.4788n
 energy1=-114.5987f
 energy2= -37.6088f
 energysum=-152.2075f
 edp2= 6.5210e-22

          ***** job concluded
 **info** dc convergence successful at Newton-Raphson method 

   *** parameter t1 =    5.740E-09 ***

 ******
 $example hspice setup file

 ****** transient analysis tnom=  25.000 temp=  25.000 ******
 trise=   4.2843n  targ=   6.2593n   trig=   1.9750n
 tfall=   1.1572n  targ=   2.1822n   trig=   1.0250n
 tavg=   2.7207n
 tdiff=   3.1271n
 delay=   4.2843n
 iavg= -19.4994u  from=   0.             to=  10.0000n
 energy=-233.9928f
 edp1= 1.0025e-21
 t1=   1.9504n
 t2=   6.7546n
 t3=   1.0004n
 t4=   2.4788n
 i1= -94.0169u  from=   5.7400n     to=   6.7546n
 i2= -21.1991u  from=   1.0004n     to=   2.4788n
 energy1=-114.4634f
 energy2= -37.6088f
 energysum=-152.0722f
 edp2= 6.5152e-22

          ***** job concluded
 **info** dc convergence successful at Newton-Raphson method 

   *** parameter t1 =    5.745E-09 ***

 ******
 $example hspice setup file

 ****** transient analysis tnom=  25.000 temp=  25.000 ******
 trise=   4.2842n  targ=   6.2592n   trig=   1.9750n
 tfall=   1.1572n  targ=   2.1822n   trig=   1.0250n
 tavg=   2.7207n
 tdiff=   3.1271n
 delay=   4.2842n
 iavg= -19.5017u  from=   0.             to=  10.0000n
 energy=-234.0209f
 edp1= 1.0026e-21
 t1=   1.9504n
 t2=   6.7549n
 t3=   1.0004n
 t4=   2.4788n
 i1= -94.4330u  from=   5.7450n     to=   6.7549n
 i2= -21.1991u  from=   1.0004n     to=   2.4788n
 energy1=-114.4384f
 energy2= -37.6088f
 energysum=-152.0472f
 edp2= 6.5140e-22

          ***** job concluded
 **info** dc convergence successful at Newton-Raphson method 

   *** parameter t1 =    5.750E-09 ***

 ******
 $example hspice setup file

 ****** transient analysis tnom=  25.000 temp=  25.000 ******
 trise=   4.2841n  targ=   6.2591n   trig=   1.9750n
 tfall=   1.1572n  targ=   2.1822n   trig=   1.0250n
 tavg=   2.7206n
 tdiff=   3.1269n
 delay=   4.2841n
 iavg= -19.4994u  from=   0.             to=  10.0000n
 energy=-233.9929f
 edp1= 1.0024e-21
 t1=   1.9504n
 t2=   6.7558n
 t3=   1.0004n
 t4=   2.4788n
 i1= -94.8359u  from=   5.7500n     to=   6.7558n
 i2= -21.1991u  from=   1.0004n     to=   2.4788n
 energy1=-114.4609f
 energy2= -37.6088f
 energysum=-152.0697f
 edp2= 6.5148e-22

          ***** job concluded
 **info** dc convergence successful at Newton-Raphson method 

   *** parameter t1 =    5.755E-09 ***

 ******
 $example hspice setup file

 ****** transient analysis tnom=  25.000 temp=  25.000 ******
 trise=   4.2843n  targ=   6.2593n   trig=   1.9750n
 tfall=   1.1572n  targ=   2.1822n   trig=   1.0250n
 tavg=   2.7207n
 tdiff=   3.1271n
 delay=   4.2843n
 iavg= -19.4974u  from=   0.             to=  10.0000n
 energy=-233.9682f
 edp1= 1.0024e-21
 t1=   1.9504n
 t2=   6.7542n
 t3=   1.0004n
 t4=   2.4788n
 i1= -95.4336u  from=   5.7550n     to=   6.7542n
 i2= -21.1991u  from=   1.0004n     to=   2.4788n
 energy1=-114.4336f
 energy2= -37.6088f
 energysum=-152.0424f
 edp2= 6.5139e-22

          ***** job concluded
 **info** dc convergence successful at Newton-Raphson method 

   *** parameter t1 =    5.760E-09 ***

 ******
 $example hspice setup file

 ****** transient analysis tnom=  25.000 temp=  25.000 ******
 trise=   4.2843n  targ=   6.2593n   trig=   1.9750n
 tfall=   1.1572n  targ=   2.1822n   trig=   1.0250n
 tavg=   2.7207n
 tdiff=   3.1272n
 delay=   4.2843n
 iavg= -19.5097u  from=   0.             to=  10.0000n
 energy=-234.1168f
 edp1= 1.0030e-21
 t1=   1.9504n
 t2=   6.7606n
 t3=   1.0004n
 t4=   2.4788n
 i1= -95.4400u  from=   5.7600n     to=   6.7606n
 i2= -21.1991u  from=   1.0004n     to=   2.4788n
 energy1=-114.5945f
 energy2= -37.6088f
 energysum=-152.2033f
 edp2= 6.5209e-22

          ***** job concluded
 **info** dc convergence successful at Newton-Raphson method 

   *** parameter t1 =    5.765E-09 ***

 ******
 $example hspice setup file

 ****** transient analysis tnom=  25.000 temp=  25.000 ******
 trise=   4.2841n  targ=   6.2591n   trig=   1.9750n
 tfall=   1.1572n  targ=   2.1822n   trig=   1.0250n
 tavg=   2.7206n
 tdiff=   3.1270n
 delay=   4.2841n
 iavg= -19.5032u  from=   0.             to=  10.0000n
 energy=-234.0384f
 edp1= 1.0026e-21
 t1=   1.9504n
 t2=   6.7556n
 t3=   1.0004n
 t4=   2.4788n
 i1= -96.2695u  from=   5.7650n     to=   6.7556n
 i2= -21.1991u  from=   1.0004n     to=   2.4788n
 energy1=-114.4390f
 energy2= -37.6088f
 energysum=-152.0478f
 edp2= 6.5139e-22

          ***** job concluded
 **info** dc convergence successful at Newton-Raphson method 

   *** parameter t1 =    5.770E-09 ***

 ******
 $example hspice setup file

 ****** transient analysis tnom=  25.000 temp=  25.000 ******
 trise=   4.2842n  targ=   6.2592n   trig=   1.9750n
 tfall=   1.1572n  targ=   2.1822n   trig=   1.0250n
 tavg=   2.7207n
 tdiff=   3.1270n
 delay=   4.2842n
 iavg= -19.5024u  from=   0.             to=  10.0000n
 energy=-234.0289f
 edp1= 1.0026e-21
 t1=   1.9504n
 t2=   6.7556n
 t3=   1.0004n
 t4=   2.4788n
 i1= -96.7628u  from=   5.7700n     to=   6.7556n
 i2= -21.1991u  from=   1.0004n     to=   2.4788n
 energy1=-114.4396f
 energy2= -37.6088f
 energysum=-152.0484f
 edp2= 6.5140e-22

          ***** job concluded
 **info** dc convergence successful at Newton-Raphson method 

   *** parameter t1 =    5.775E-09 ***

 ******
 $example hspice setup file

 ****** transient analysis tnom=  25.000 temp=  25.000 ******
 trise=   4.2842n  targ=   6.2592n   trig=   1.9750n
 tfall=   1.1572n  targ=   2.1822n   trig=   1.0250n
 tavg=   2.7207n
 tdiff=   3.1271n
 delay=   4.2842n
 iavg= -19.4980u  from=   0.             to=  10.0000n
 energy=-233.9755f
 edp1= 1.0024e-21
 t1=   1.9504n
 t2=   6.7553n
 t3=   1.0004n
 t4=   2.4788n
 i1= -97.2928u  from=   5.7750n     to=   6.7553n
 i2= -21.1991u  from=   1.0004n     to=   2.4788n
 energy1=-114.4526f
 energy2= -37.6088f
 energysum=-152.0614f
 edp2= 6.5146e-22

          ***** job concluded
 **info** dc convergence successful at Newton-Raphson method 

   *** parameter t1 =    5.780E-09 ***

 ******
 $example hspice setup file

 ****** transient analysis tnom=  25.000 temp=  25.000 ******
 trise=   4.2842n  targ=   6.2592n   trig=   1.9750n
 tfall=   1.1572n  targ=   2.1822n   trig=   1.0250n
 tavg=   2.7207n
 tdiff=   3.1271n
 delay=   4.2842n
 iavg= -19.5125u  from=   0.             to=  10.0000n
 energy=-234.1500f
 edp1= 1.0032e-21
 t1=   1.9504n
 t2=   6.7589n
 t3=   1.0004n
 t4=   2.4788n
 i1= -97.5290u  from=   5.7800n     to=   6.7589n
 i2= -21.1991u  from=   1.0004n     to=   2.4788n
 energy1=-114.5686f
 energy2= -37.6088f
 energysum=-152.1774f
 edp2= 6.5197e-22

          ***** job concluded
 **info** dc convergence successful at Newton-Raphson method 

   *** parameter t1 =    5.785E-09 ***

 ******
 $example hspice setup file

 ****** transient analysis tnom=  25.000 temp=  25.000 ******
 trise=   4.2841n  targ=   6.2591n   trig=   1.9750n
 tfall=   1.1572n  targ=   2.1822n   trig=   1.0250n
 tavg=   2.7206n
 tdiff=   3.1269n
 delay=   4.2841n
 iavg= -19.5018u  from=   0.             to=  10.0000n
 energy=-234.0212f
 edp1= 1.0026e-21
 t1=   1.9504n
 t2=   6.7556n
 t3=   1.0004n
 t4=   2.4788n
 i1= -98.2288u  from=   5.7850n     to=   6.7556n
 i2= -21.1991u  from=   1.0004n     to=   2.4788n
 energy1=-114.4131f
 energy2= -37.6088f
 energysum=-152.0219f
 edp2= 6.5128e-22

          ***** job concluded
 **info** dc convergence successful at Newton-Raphson method 

   *** parameter t1 =    5.790E-09 ***

 ******
 $example hspice setup file

 ****** transient analysis tnom=  25.000 temp=  25.000 ******
 trise=   4.2841n  targ=   6.2591n   trig=   1.9750n
 tfall=   1.1572n  targ=   2.1822n   trig=   1.0250n
 tavg=   2.7206n
 tdiff=   3.1270n
 delay=   4.2841n
 iavg= -19.4971u  from=   0.             to=  10.0000n
 energy=-233.9653f
 edp1= 1.0023e-21
 t1=   1.9504n
 t2=   6.7556n
 t3=   1.0004n
 t4=   2.4788n
 i1= -98.7245u  from=   5.7900n     to=   6.7556n
 i2= -21.1991u  from=   1.0004n     to=   2.4788n
 energy1=-114.3978f
 energy2= -37.6088f
 energysum=-152.0066f
 edp2= 6.5122e-22

          ***** job concluded
 **info** dc convergence successful at Newton-Raphson method 

   *** parameter t1 =    5.795E-09 ***

 ******
 $example hspice setup file

 ****** transient analysis tnom=  25.000 temp=  25.000 ******
 trise=   4.2840n  targ=   6.2590n   trig=   1.9750n
 tfall=   1.1572n  targ=   2.1822n   trig=   1.0250n
 tavg=   2.7206n
 tdiff=   3.1269n
 delay=   4.2840n
 iavg= -19.4966u  from=   0.             to=  10.0000n
 energy=-233.9587f
 edp1= 1.0023e-21
 t1=   1.9504n
 t2=   6.7557n
 t3=   1.0004n
 t4=   2.4788n
 i1= -99.2130u  from=   5.7950n     to=   6.7557n
 i2= -21.1991u  from=   1.0004n     to=   2.4788n
 energy1=-114.3819f
 energy2= -37.6088f
 energysum=-151.9907f
 edp2= 6.5114e-22

          ***** job concluded
 **info** dc convergence successful at Newton-Raphson method 

   *** parameter t1 =    5.800E-09 ***

 ******
 $example hspice setup file

 ****** transient analysis tnom=  25.000 temp=  25.000 ******
 trise=   4.2843n  targ=   6.2593n   trig=   1.9750n
 tfall=   1.1572n  targ=   2.1822n   trig=   1.0250n
 tavg=   2.7207n
 tdiff=   3.1271n
 delay=   4.2843n
 iavg= -19.5025u  from=   0.             to=  10.0000n
 energy=-234.0297f
 edp1= 1.0027e-21
 t1=   1.9504n
 t2=   6.7605n
 t3=   1.0004n
 t4=   2.4788n
 i1= -99.3633u  from=   5.8000n     to=   6.7605n
 i2= -21.1991u  from=   1.0004n     to=   2.4788n
 energy1=-114.5234f
 energy2= -37.6088f
 energysum=-152.1322f
 edp2= 6.5178e-22

          ***** job concluded
 ******  
 $example hspice setup file

 ****** job statistics summary tnom=  25.000 temp=  25.000 ******
  
 ******  Machine Information  ******
 CPU:
 model name	: AMD EPYC 7F32 8-Core Processor
 cpu MHz	: 3693.226
  
 OS:
 Linux version 3.10.0-1160.119.1.el7.x86_64 (mockbuild@x86-vm-39.brew-001.prod.iad2.dc.redhat.com) (gcc version 4.8.5 20150623 (Red Hat 4.8.5-44) (GCC) ) #1 SMP Tue May 14 11:55:25 EDT 2024


  ******  HSPICE Threads Information  ******

  Command Line Threads Count :     1
  Available CPU Count        :    32
  Actual Threads Count       :     1


  ******  Circuit Statistics  ******
  # nodes       =     407 # elements   =    1286
  # resistors   =     351 # capacitors =     900 # inductors   =       0
  # mutual_inds =       0 # vccs       =       0 # vcvs        =       0
  # cccs        =       0 # ccvs       =       0 # volt_srcs   =       4
  # curr_srcs   =       0 # diodes     =       1 # bjts        =       0
  # jfets       =       0 # mosfets    =      30 # U elements  =       0
  # T elements  =       0 # W elements =       0 # B elements  =       0
  # S elements  =       0 # P elements =       0 # va device   =       0
  # vector_srcs =       0 # N elements =       0


  ******  Runtime Statistics (seconds)  ******

  analysis           time    # points   tot. iter  conv.iter
  op point           0.70           1        3078
  transient         28.61       97281      201900       78407 rev=     11723
  readin             1.75
  errchk             0.08
  setup              0.00
  output             0.00


           peak memory used        374.16 megabytes
           total cpu time           31.11 seconds
           total elapsed time       37.79 seconds
           job started at     23:12:38 11/14/2024
           job ended   at     23:13:15 11/14/2024



>info:         ***** hspice job concluded
 lic: Release hspice token(s) 
 lic: total license checkout elapse time:        0.02(s)

End of pVA simulation reached at time 0 on Thu Nov 14 23:13:15 2024	GTM/In-use: 61.0000/49.6116 MB


			pVA malloc          4.840 Mbytes       100792 times
			pVA calloc         79.545 Mbytes       547191 times
			pVA realloc         3.622 Mbytes         1826 times
			pVA valloc          0.000 Mbytes            0 times
			pVA alloca          0.000 Mbytes            0 times

			pVA TOT-MEM        88.006 Mbytes       649809 times
			pVA free                               132695 times
			pVA strdup          0.000 Mbytes            0 times


pVA concluded on Thu Nov 14 23:13:15 2024	GTM/In-use: 61.0000/49.6116 MB

