$DATA1 SOURCE='HSPICE' VERSION='O-2018.09-2 linux64' PARAM_COUNT=1
.TITLE '$example hspice setup file'
 t1               trise            tfall            tavg            
                  tdiff            delay            iavg            
                  energy           edp1             t1              
                  t2               t3               t4              
                  i1               i2               energy1         
                  energy2          energysum        edp2            
                  temper           alter#          
  5.400e-09        4.284e-09        1.157e-09        2.721e-09      
                   3.127e-09        4.284e-09       -1.950e-05      
                  -2.341e-13        1.003e-21        1.950e-09      
                   6.756e-09        1.000e-09        2.479e-09      
                  -7.036e-05       -2.120e-05       -1.145e-13      
                  -3.761e-14       -1.521e-13        6.515e-22      
                    25.0000        1               
  5.405e-09        4.284e-09        1.157e-09        2.721e-09      
                   3.127e-09        4.284e-09       -1.950e-05      
                  -2.340e-13        1.002e-21        1.950e-09      
                   6.756e-09        1.000e-09        2.479e-09      
                  -7.062e-05       -2.120e-05       -1.145e-13      
                  -3.761e-14       -1.521e-13        6.514e-22      
                    25.0000        1               
  5.410e-09        4.284e-09        1.157e-09        2.721e-09      
                   3.127e-09        4.284e-09       -1.950e-05      
                  -2.340e-13        1.002e-21        1.950e-09      
                   6.756e-09        1.000e-09        2.479e-09      
                  -7.088e-05       -2.120e-05       -1.145e-13      
                  -3.761e-14       -1.521e-13        6.514e-22      
                    25.0000        1               
  5.415e-09        4.284e-09        1.157e-09        2.721e-09      
                   3.127e-09        4.284e-09       -1.951e-05      
                  -2.342e-13        1.003e-21        1.950e-09      
                   6.759e-09        1.000e-09        2.479e-09      
                  -7.106e-05       -2.120e-05       -1.146e-13      
                  -3.761e-14       -1.522e-13        6.521e-22      
                    25.0000        1               
  5.420e-09        4.284e-09        1.157e-09        2.721e-09      
                   3.127e-09        4.284e-09       -1.952e-05      
                  -2.342e-13        1.003e-21        1.950e-09      
                   6.762e-09        1.000e-09        2.479e-09      
                  -7.119e-05       -2.120e-05       -1.147e-13      
                  -3.761e-14       -1.523e-13        6.525e-22      
                    25.0000        1               
  5.425e-09        4.284e-09        1.157e-09        2.721e-09      
                   3.127e-09        4.284e-09       -1.949e-05      
                  -2.339e-13        1.002e-21        1.950e-09      
                   6.754e-09        1.000e-09        2.479e-09      
                  -7.172e-05       -2.120e-05       -1.144e-13      
                  -3.761e-14       -1.520e-13        6.513e-22      
                    25.0000        1               
  5.430e-09        4.284e-09        1.157e-09        2.721e-09      
                   3.127e-09        4.284e-09       -1.950e-05      
                  -2.340e-13        1.002e-21        1.950e-09      
                   6.754e-09        1.000e-09        2.479e-09      
                  -7.201e-05       -2.120e-05       -1.144e-13      
                  -3.761e-14       -1.521e-13        6.514e-22      
                    25.0000        1               
  5.435e-09        4.284e-09        1.157e-09        2.721e-09      
                   3.127e-09        4.284e-09       -1.951e-05      
                  -2.342e-13        1.003e-21        1.950e-09      
                   6.759e-09        1.000e-09        2.479e-09      
                  -7.210e-05       -2.120e-05       -1.146e-13      
                  -3.761e-14       -1.522e-13        6.520e-22      
                    25.0000        1               
  5.440e-09        4.284e-09        1.157e-09        2.721e-09      
                   3.127e-09        4.284e-09       -1.951e-05      
                  -2.341e-13        1.003e-21        1.950e-09      
                   6.761e-09        1.000e-09        2.479e-09      
                  -7.233e-05       -2.120e-05       -1.146e-13      
                  -3.761e-14       -1.522e-13        6.522e-22      
                    25.0000        1               
  5.445e-09        4.284e-09        1.157e-09        2.721e-09      
                   3.127e-09        4.284e-09       -1.950e-05      
                  -2.340e-13        1.002e-21        1.950e-09      
                   6.754e-09        1.000e-09        2.479e-09      
                  -7.283e-05       -2.120e-05       -1.144e-13      
                  -3.761e-14       -1.520e-13        6.514e-22      
                    25.0000        1               
  5.450e-09        4.284e-09        1.157e-09        2.721e-09      
                   3.127e-09        4.284e-09       -1.950e-05      
                  -2.340e-13        1.003e-21        1.950e-09      
                   6.755e-09        1.000e-09        2.479e-09      
                  -7.308e-05       -2.120e-05       -1.145e-13      
                  -3.761e-14       -1.521e-13        6.515e-22      
                    25.0000        1               
  5.455e-09        4.284e-09        1.157e-09        2.721e-09      
                   3.127e-09        4.284e-09       -1.950e-05      
                  -2.340e-13        1.003e-21        1.950e-09      
                   6.756e-09        1.000e-09        2.479e-09      
                  -7.334e-05       -2.120e-05       -1.145e-13      
                  -3.761e-14       -1.521e-13        6.515e-22      
                    25.0000        1               
  5.460e-09        4.284e-09        1.157e-09        2.721e-09      
                   3.127e-09        4.284e-09       -1.950e-05      
                  -2.340e-13        1.002e-21        1.950e-09      
                   6.754e-09        1.000e-09        2.479e-09      
                  -7.367e-05       -2.120e-05       -1.144e-13      
                  -3.761e-14       -1.521e-13        6.514e-22      
                    25.0000        1               
  5.465e-09        4.284e-09        1.157e-09        2.721e-09      
                   3.127e-09        4.284e-09       -1.950e-05      
                  -2.341e-13        1.003e-21        1.950e-09      
                   6.756e-09        1.000e-09        2.479e-09      
                  -7.391e-05       -2.120e-05       -1.145e-13      
                  -3.761e-14       -1.521e-13        6.515e-22      
                    25.0000        1               
  5.470e-09        4.284e-09        1.157e-09        2.721e-09      
                   3.127e-09        4.284e-09       -1.952e-05      
                  -2.342e-13        1.003e-21        1.950e-09      
                   6.764e-09        1.000e-09        2.479e-09      
                  -7.385e-05       -2.120e-05       -1.147e-13      
                  -3.761e-14       -1.523e-13        6.524e-22      
                    25.0000        1               
  5.475e-09        4.284e-09        1.157e-09        2.721e-09      
                   3.127e-09        4.284e-09       -1.951e-05      
                  -2.341e-13        1.003e-21        1.950e-09      
                   6.756e-09        1.000e-09        2.479e-09      
                  -7.450e-05       -2.120e-05       -1.145e-13      
                  -3.761e-14       -1.521e-13        6.516e-22      
                    25.0000        1               
  5.480e-09        4.284e-09        1.157e-09        2.721e-09      
                   3.127e-09        4.284e-09       -1.950e-05      
                  -2.340e-13        1.002e-21        1.950e-09      
                   6.755e-09        1.000e-09        2.479e-09      
                  -7.483e-05       -2.120e-05       -1.144e-13      
                  -3.761e-14       -1.520e-13        6.514e-22      
                    25.0000        1               
  5.485e-09        4.284e-09        1.157e-09        2.721e-09      
                   3.127e-09        4.284e-09       -1.950e-05      
                  -2.340e-13        1.003e-21        1.950e-09      
                   6.756e-09        1.000e-09        2.479e-09      
                  -7.507e-05       -2.120e-05       -1.145e-13      
                  -3.761e-14       -1.521e-13        6.515e-22      
                    25.0000        1               
  5.490e-09        4.284e-09        1.157e-09        2.721e-09      
                   3.127e-09        4.284e-09       -1.950e-05      
                  -2.340e-13        1.002e-21        1.950e-09      
                   6.755e-09        1.000e-09        2.479e-09      
                  -7.540e-05       -2.120e-05       -1.144e-13      
                  -3.761e-14       -1.521e-13        6.514e-22      
                    25.0000        1               
  5.495e-09        4.284e-09        1.157e-09        2.721e-09      
                   3.127e-09        4.284e-09       -1.950e-05      
                  -2.341e-13        1.003e-21        1.950e-09      
                   6.760e-09        1.000e-09        2.479e-09      
                  -7.543e-05       -2.120e-05       -1.145e-13      
                  -3.761e-14       -1.521e-13        6.518e-22      
                    25.0000        1               
  5.500e-09        4.284e-09        1.157e-09        2.721e-09      
                   3.127e-09        4.284e-09       -1.950e-05      
                  -2.340e-13        1.002e-21        1.950e-09      
                   6.754e-09        1.000e-09        2.479e-09      
                  -7.604e-05       -2.120e-05       -1.145e-13      
                  -3.761e-14       -1.521e-13        6.515e-22      
                    25.0000        1               
  5.505e-09        4.284e-09        1.157e-09        2.721e-09      
                   3.127e-09        4.284e-09       -1.951e-05      
                  -2.341e-13        1.003e-21        1.950e-09      
                   6.756e-09        1.000e-09        2.479e-09      
                  -7.628e-05       -2.120e-05       -1.145e-13      
                  -3.761e-14       -1.521e-13        6.516e-22      
                    25.0000        1               
  5.510e-09        4.284e-09        1.157e-09        2.721e-09      
                   3.127e-09        4.284e-09       -1.951e-05      
                  -2.342e-13        1.003e-21        1.950e-09      
                   6.760e-09        1.000e-09        2.479e-09      
                  -7.642e-05       -2.120e-05       -1.146e-13      
                  -3.761e-14       -1.522e-13        6.521e-22      
                    25.0000        1               
  5.515e-09        4.284e-09        1.157e-09        2.721e-09      
                   3.127e-09        4.284e-09       -1.950e-05      
                  -2.340e-13        1.003e-21        1.950e-09      
                   6.756e-09        1.000e-09        2.479e-09      
                  -7.688e-05       -2.120e-05       -1.145e-13      
                  -3.761e-14       -1.521e-13        6.514e-22      
                    25.0000        1               
  5.520e-09        4.284e-09        1.157e-09        2.721e-09      
                   3.127e-09        4.284e-09       -1.950e-05      
                  -2.340e-13        1.002e-21        1.950e-09      
                   6.756e-09        1.000e-09        2.479e-09      
                  -7.719e-05       -2.120e-05       -1.144e-13      
                  -3.761e-14       -1.521e-13        6.514e-22      
                    25.0000        1               
  5.525e-09        4.284e-09        1.157e-09        2.721e-09      
                   3.127e-09        4.284e-09       -1.950e-05      
                  -2.340e-13        1.002e-21        1.950e-09      
                   6.754e-09        1.000e-09        2.479e-09      
                  -7.757e-05       -2.120e-05       -1.144e-13      
                  -3.761e-14       -1.520e-13        6.514e-22      
                    25.0000        1               
  5.530e-09        4.284e-09        1.157e-09        2.721e-09      
                   3.127e-09        4.284e-09       -1.950e-05      
                  -2.340e-13        1.003e-21        1.950e-09      
                   6.756e-09        1.000e-09        2.479e-09      
                  -7.782e-05       -2.120e-05       -1.144e-13      
                  -3.761e-14       -1.521e-13        6.514e-22      
                    25.0000        1               
  5.535e-09        4.284e-09        1.157e-09        2.721e-09      
                   3.127e-09        4.284e-09       -1.951e-05      
                  -2.341e-13        1.003e-21        1.950e-09      
                   6.760e-09        1.000e-09        2.479e-09      
                  -7.793e-05       -2.120e-05       -1.146e-13      
                  -3.761e-14       -1.522e-13        6.520e-22      
                    25.0000        1               
  5.540e-09        4.284e-09        1.157e-09        2.721e-09      
                   3.127e-09        4.284e-09       -1.950e-05      
                  -2.340e-13        1.003e-21        1.950e-09      
                   6.756e-09        1.000e-09        2.479e-09      
                  -7.845e-05       -2.120e-05       -1.144e-13      
                  -3.761e-14       -1.521e-13        6.514e-22      
                    25.0000        1               
  5.545e-09        4.284e-09        1.157e-09        2.721e-09      
                   3.127e-09        4.284e-09       -1.951e-05      
                  -2.342e-13        1.003e-21        1.950e-09      
                   6.764e-09        1.000e-09        2.479e-09      
                  -7.840e-05       -2.120e-05       -1.147e-13      
                  -3.761e-14       -1.523e-13        6.525e-22      
                    25.0000        1               
  5.550e-09        4.284e-09        1.157e-09        2.721e-09      
                   3.127e-09        4.284e-09       -1.950e-05      
                  -2.340e-13        1.003e-21        1.950e-09      
                   6.756e-09        1.000e-09        2.479e-09      
                  -7.911e-05       -2.120e-05       -1.144e-13      
                  -3.761e-14       -1.521e-13        6.514e-22      
                    25.0000        1               
  5.555e-09        4.284e-09        1.157e-09        2.721e-09      
                   3.127e-09        4.284e-09       -1.950e-05      
                  -2.340e-13        1.002e-21        1.950e-09      
                   6.756e-09        1.000e-09        2.479e-09      
                  -7.944e-05       -2.120e-05       -1.144e-13      
                  -3.761e-14       -1.521e-13        6.514e-22      
                    25.0000        1               
  5.560e-09        4.284e-09        1.157e-09        2.721e-09      
                   3.127e-09        4.284e-09       -1.950e-05      
                  -2.340e-13        1.002e-21        1.950e-09      
                   6.756e-09        1.000e-09        2.479e-09      
                  -7.977e-05       -2.120e-05       -1.144e-13      
                  -3.761e-14       -1.521e-13        6.514e-22      
                    25.0000        1               
  5.565e-09        4.284e-09        1.157e-09        2.721e-09      
                   3.127e-09        4.284e-09       -1.950e-05      
                  -2.340e-13        1.003e-21        1.950e-09      
                   6.756e-09        1.000e-09        2.479e-09      
                  -8.010e-05       -2.120e-05       -1.144e-13      
                  -3.761e-14       -1.521e-13        6.514e-22      
                    25.0000        1               
  5.570e-09        4.284e-09        1.157e-09        2.721e-09      
                   3.127e-09        4.284e-09       -1.950e-05      
                  -2.340e-13        1.003e-21        1.950e-09      
                   6.756e-09        1.000e-09        2.479e-09      
                  -8.044e-05       -2.120e-05       -1.144e-13      
                  -3.761e-14       -1.521e-13        6.514e-22      
                    25.0000        1               
  5.575e-09        4.284e-09        1.157e-09        2.721e-09      
                   3.127e-09        4.284e-09       -1.950e-05      
                  -2.340e-13        1.002e-21        1.950e-09      
                   6.755e-09        1.000e-09        2.479e-09      
                  -8.080e-05       -2.120e-05       -1.145e-13      
                  -3.761e-14       -1.521e-13        6.514e-22      
                    25.0000        1               
  5.580e-09        4.284e-09        1.157e-09        2.721e-09      
                   3.127e-09        4.284e-09       -1.950e-05      
                  -2.340e-13        1.002e-21        1.950e-09      
                   6.756e-09        1.000e-09        2.479e-09      
                  -8.113e-05       -2.120e-05       -1.145e-13      
                  -3.761e-14       -1.521e-13        6.515e-22      
                    25.0000        1               
  5.585e-09        4.284e-09        1.157e-09        2.721e-09      
                   3.127e-09        4.284e-09       -1.950e-05      
                  -2.340e-13        1.002e-21        1.950e-09      
                   6.754e-09        1.000e-09        2.479e-09      
                  -8.155e-05       -2.120e-05       -1.144e-13      
                  -3.761e-14       -1.520e-13        6.514e-22      
                    25.0000        1               
  5.590e-09        4.284e-09        1.157e-09        2.721e-09      
                   3.127e-09        4.284e-09       -1.952e-05      
                  -2.342e-13        1.003e-21        1.950e-09      
                   6.760e-09        1.000e-09        2.479e-09      
                  -8.161e-05       -2.120e-05       -1.146e-13      
                  -3.761e-14       -1.522e-13        6.521e-22      
                    25.0000        1               
  5.595e-09        4.284e-09        1.157e-09        2.721e-09      
                   3.127e-09        4.284e-09       -1.950e-05      
                  -2.340e-13        1.002e-21        1.950e-09      
                   6.754e-09        1.000e-09        2.479e-09      
                  -8.226e-05       -2.120e-05       -1.144e-13      
                  -3.761e-14       -1.521e-13        6.514e-22      
                    25.0000        1               
  5.600e-09        4.284e-09        1.157e-09        2.721e-09      
                   3.127e-09        4.284e-09       -1.951e-05      
                  -2.341e-13        1.003e-21        1.950e-09      
                   6.761e-09        1.000e-09        2.479e-09      
                  -8.229e-05       -2.120e-05       -1.146e-13      
                  -3.761e-14       -1.522e-13        6.521e-22      
                    25.0000        1               
  5.605e-09        4.284e-09        1.157e-09        2.721e-09      
                   3.127e-09        4.284e-09       -1.950e-05      
                  -2.341e-13        1.003e-21        1.950e-09      
                   6.755e-09        1.000e-09        2.479e-09      
                  -8.292e-05       -2.120e-05       -1.145e-13      
                  -3.761e-14       -1.521e-13        6.515e-22      
                    25.0000        1               
  5.610e-09        4.284e-09        1.157e-09        2.721e-09      
                   3.127e-09        4.284e-09       -1.950e-05      
                  -2.340e-13        1.002e-21        1.950e-09      
                   6.755e-09        1.000e-09        2.479e-09      
                  -8.333e-05       -2.120e-05       -1.144e-13      
                  -3.761e-14       -1.521e-13        6.514e-22      
                    25.0000        1               
  5.615e-09        4.284e-09        1.157e-09        2.721e-09      
                   3.127e-09        4.284e-09       -1.950e-05      
                  -2.340e-13        1.002e-21        1.950e-09      
                   6.756e-09        1.000e-09        2.479e-09      
                  -8.362e-05       -2.120e-05       -1.145e-13      
                  -3.761e-14       -1.521e-13        6.515e-22      
                    25.0000        1               
  5.620e-09        4.284e-09        1.157e-09        2.721e-09      
                   3.127e-09        4.284e-09       -1.951e-05      
                  -2.341e-13        1.003e-21        1.950e-09      
                   6.755e-09        1.000e-09        2.479e-09      
                  -8.401e-05       -2.120e-05       -1.145e-13      
                  -3.761e-14       -1.521e-13        6.515e-22      
                    25.0000        1               
  5.625e-09        4.284e-09        1.157e-09        2.721e-09      
                   3.127e-09        4.284e-09       -1.950e-05      
                  -2.340e-13        1.002e-21        1.950e-09      
                   6.756e-09        1.000e-09        2.479e-09      
                  -8.437e-05       -2.120e-05       -1.145e-13      
                  -3.761e-14       -1.521e-13        6.515e-22      
                    25.0000        1               
  5.630e-09        4.284e-09        1.157e-09        2.721e-09      
                   3.127e-09        4.284e-09       -1.950e-05      
                  -2.340e-13        1.002e-21        1.950e-09      
                   6.755e-09        1.000e-09        2.479e-09      
                  -8.483e-05       -2.120e-05       -1.145e-13      
                  -3.761e-14       -1.521e-13        6.516e-22      
                    25.0000        1               
  5.635e-09        4.284e-09        1.157e-09        2.721e-09      
                   3.127e-09        4.284e-09       -1.950e-05      
                  -2.340e-13        1.003e-21        1.950e-09      
                   6.754e-09        1.000e-09        2.479e-09      
                  -8.522e-05       -2.120e-05       -1.145e-13      
                  -3.761e-14       -1.521e-13        6.516e-22      
                    25.0000        1               
  5.640e-09        4.284e-09        1.157e-09        2.721e-09      
                   3.127e-09        4.284e-09       -1.950e-05      
                  -2.340e-13        1.002e-21        1.950e-09      
                   6.756e-09        1.000e-09        2.479e-09      
                  -8.550e-05       -2.120e-05       -1.145e-13      
                  -3.761e-14       -1.521e-13        6.515e-22      
                    25.0000        1               
  5.645e-09        4.284e-09        1.157e-09        2.721e-09      
                   3.127e-09        4.284e-09       -1.950e-05      
                  -2.340e-13        1.002e-21        1.950e-09      
                   6.756e-09        1.000e-09        2.479e-09      
                  -8.588e-05       -2.120e-05       -1.145e-13      
                  -3.761e-14       -1.521e-13        6.515e-22      
                    25.0000        1               
  5.650e-09        4.284e-09        1.157e-09        2.721e-09      
                   3.127e-09        4.284e-09       -1.950e-05      
                  -2.340e-13        1.003e-21        1.950e-09      
                   6.755e-09        1.000e-09        2.479e-09      
                  -8.630e-05       -2.120e-05       -1.145e-13      
                  -3.761e-14       -1.521e-13        6.516e-22      
                    25.0000        1               
  5.655e-09        4.284e-09        1.157e-09        2.721e-09      
                   3.127e-09        4.284e-09       -1.950e-05      
                  -2.340e-13        1.003e-21        1.950e-09      
                   6.754e-09        1.000e-09        2.479e-09      
                  -8.678e-05       -2.120e-05       -1.145e-13      
                  -3.761e-14       -1.521e-13        6.515e-22      
                    25.0000        1               
  5.660e-09        4.284e-09        1.157e-09        2.721e-09      
                   3.127e-09        4.284e-09       -1.950e-05      
                  -2.340e-13        1.003e-21        1.950e-09      
                   6.761e-09        1.000e-09        2.479e-09      
                  -8.666e-05       -2.120e-05       -1.145e-13      
                  -3.761e-14       -1.521e-13        6.518e-22      
                    25.0000        1               
  5.665e-09        4.284e-09        1.157e-09        2.721e-09      
                   3.127e-09        4.284e-09       -1.950e-05      
                  -2.340e-13        1.002e-21        1.950e-09      
                   6.754e-09        1.000e-09        2.479e-09      
                  -8.755e-05       -2.120e-05       -1.144e-13      
                  -3.761e-14       -1.521e-13        6.514e-22      
                    25.0000        1               
  5.670e-09        4.284e-09        1.157e-09        2.721e-09      
                   3.127e-09        4.284e-09       -1.950e-05      
                  -2.341e-13        1.003e-21        1.950e-09      
                   6.756e-09        1.000e-09        2.479e-09      
                  -8.788e-05       -2.120e-05       -1.145e-13      
                  -3.761e-14       -1.521e-13        6.516e-22      
                    25.0000        1               
  5.675e-09        4.284e-09        1.157e-09        2.721e-09      
                   3.127e-09        4.284e-09       -1.950e-05      
                  -2.340e-13        1.003e-21        1.950e-09      
                   6.756e-09        1.000e-09        2.479e-09      
                  -8.826e-05       -2.120e-05       -1.145e-13      
                  -3.761e-14       -1.521e-13        6.515e-22      
                    25.0000        1               
  5.680e-09        4.284e-09        1.157e-09        2.721e-09      
                   3.127e-09        4.284e-09       -1.950e-05      
                  -2.340e-13        1.002e-21        1.950e-09      
                   6.755e-09        1.000e-09        2.479e-09      
                  -8.873e-05       -2.120e-05       -1.145e-13      
                  -3.761e-14       -1.521e-13        6.515e-22      
                    25.0000        1               
  5.685e-09        4.284e-09        1.157e-09        2.721e-09      
                   3.127e-09        4.284e-09       -1.950e-05      
                  -2.340e-13        1.002e-21        1.950e-09      
                   6.755e-09        1.000e-09        2.479e-09      
                  -8.917e-05       -2.120e-05       -1.144e-13      
                  -3.761e-14       -1.521e-13        6.514e-22      
                    25.0000        1               
  5.690e-09        4.284e-09        1.157e-09        2.721e-09      
                   3.127e-09        4.284e-09       -1.951e-05      
                  -2.342e-13        1.003e-21        1.950e-09      
                   6.757e-09        1.000e-09        2.479e-09      
                  -8.952e-05       -2.120e-05       -1.146e-13      
                  -3.761e-14       -1.522e-13        6.522e-22      
                    25.0000        1               
  5.695e-09        4.284e-09        1.157e-09        2.721e-09      
                   3.127e-09        4.284e-09       -1.951e-05      
                  -2.341e-13        1.003e-21        1.950e-09      
                   6.760e-09        1.000e-09        2.479e-09      
                  -8.966e-05       -2.120e-05       -1.146e-13      
                  -3.761e-14       -1.522e-13        6.521e-22      
                    25.0000        1               
  5.700e-09        4.284e-09        1.157e-09        2.721e-09      
                   3.127e-09        4.284e-09       -1.950e-05      
                  -2.340e-13        1.002e-21        1.950e-09      
                   6.756e-09        1.000e-09        2.479e-09      
                  -9.035e-05       -2.120e-05       -1.145e-13      
                  -3.761e-14       -1.521e-13        6.514e-22      
                    25.0000        1               
  5.705e-09        4.284e-09        1.157e-09        2.721e-09      
                   3.127e-09        4.284e-09       -1.950e-05      
                  -2.340e-13        1.002e-21        1.950e-09      
                   6.756e-09        1.000e-09        2.479e-09      
                  -9.079e-05       -2.120e-05       -1.144e-13      
                  -3.761e-14       -1.521e-13        6.514e-22      
                    25.0000        1               
  5.710e-09        4.284e-09        1.157e-09        2.721e-09      
                   3.127e-09        4.284e-09       -1.950e-05      
                  -2.341e-13        1.003e-21        1.950e-09      
                   6.756e-09        1.000e-09        2.479e-09      
                  -9.122e-05       -2.120e-05       -1.145e-13      
                  -3.761e-14       -1.521e-13        6.515e-22      
                    25.0000        1               
  5.715e-09        4.284e-09        1.157e-09        2.721e-09      
                   3.127e-09        4.284e-09       -1.950e-05      
                  -2.340e-13        1.003e-21        1.950e-09      
                   6.754e-09        1.000e-09        2.479e-09      
                  -9.178e-05       -2.120e-05       -1.144e-13      
                  -3.761e-14       -1.521e-13        6.514e-22      
                    25.0000        1               
  5.720e-09        4.284e-09        1.157e-09        2.721e-09      
                   3.127e-09        4.284e-09       -1.950e-05      
                  -2.340e-13        1.003e-21        1.950e-09      
                   6.756e-09        1.000e-09        2.479e-09      
                  -9.210e-05       -2.120e-05       -1.145e-13      
                  -3.761e-14       -1.521e-13        6.515e-22      
                    25.0000        1               
  5.725e-09        4.284e-09        1.157e-09        2.721e-09      
                   3.127e-09        4.284e-09       -1.950e-05      
                  -2.340e-13        1.003e-21        1.950e-09      
                   6.754e-09        1.000e-09        2.479e-09      
                  -9.266e-05       -2.120e-05       -1.145e-13      
                  -3.761e-14       -1.521e-13        6.515e-22      
                    25.0000        1               
  5.730e-09        4.284e-09        1.157e-09        2.721e-09      
                   3.127e-09        4.284e-09       -1.950e-05      
                  -2.340e-13        1.003e-21        1.950e-09      
                   6.756e-09        1.000e-09        2.479e-09      
                  -9.299e-05       -2.120e-05       -1.145e-13      
                  -3.761e-14       -1.521e-13        6.514e-22      
                    25.0000        1               
  5.735e-09        4.284e-09        1.157e-09        2.721e-09      
                   3.127e-09        4.284e-09       -1.951e-05      
                  -2.341e-13        1.003e-21        1.950e-09      
                   6.760e-09        1.000e-09        2.479e-09      
                  -9.313e-05       -2.120e-05       -1.146e-13      
                  -3.761e-14       -1.522e-13        6.521e-22      
                    25.0000        1               
  5.740e-09        4.284e-09        1.157e-09        2.721e-09      
                   3.127e-09        4.284e-09       -1.950e-05      
                  -2.340e-13        1.002e-21        1.950e-09      
                   6.755e-09        1.000e-09        2.479e-09      
                  -9.402e-05       -2.120e-05       -1.145e-13      
                  -3.761e-14       -1.521e-13        6.515e-22      
                    25.0000        1               
  5.745e-09        4.284e-09        1.157e-09        2.721e-09      
                   3.127e-09        4.284e-09       -1.950e-05      
                  -2.340e-13        1.003e-21        1.950e-09      
                   6.755e-09        1.000e-09        2.479e-09      
                  -9.443e-05       -2.120e-05       -1.144e-13      
                  -3.761e-14       -1.520e-13        6.514e-22      
                    25.0000        1               
  5.750e-09        4.284e-09        1.157e-09        2.721e-09      
                   3.127e-09        4.284e-09       -1.950e-05      
                  -2.340e-13        1.002e-21        1.950e-09      
                   6.756e-09        1.000e-09        2.479e-09      
                  -9.484e-05       -2.120e-05       -1.145e-13      
                  -3.761e-14       -1.521e-13        6.515e-22      
                    25.0000        1               
  5.755e-09        4.284e-09        1.157e-09        2.721e-09      
                   3.127e-09        4.284e-09       -1.950e-05      
                  -2.340e-13        1.002e-21        1.950e-09      
                   6.754e-09        1.000e-09        2.479e-09      
                  -9.543e-05       -2.120e-05       -1.144e-13      
                  -3.761e-14       -1.520e-13        6.514e-22      
                    25.0000        1               
  5.760e-09        4.284e-09        1.157e-09        2.721e-09      
                   3.127e-09        4.284e-09       -1.951e-05      
                  -2.341e-13        1.003e-21        1.950e-09      
                   6.761e-09        1.000e-09        2.479e-09      
                  -9.544e-05       -2.120e-05       -1.146e-13      
                  -3.761e-14       -1.522e-13        6.521e-22      
                    25.0000        1               
  5.765e-09        4.284e-09        1.157e-09        2.721e-09      
                   3.127e-09        4.284e-09       -1.950e-05      
                  -2.340e-13        1.003e-21        1.950e-09      
                   6.756e-09        1.000e-09        2.479e-09      
                  -9.627e-05       -2.120e-05       -1.144e-13      
                  -3.761e-14       -1.520e-13        6.514e-22      
                    25.0000        1               
  5.770e-09        4.284e-09        1.157e-09        2.721e-09      
                   3.127e-09        4.284e-09       -1.950e-05      
                  -2.340e-13        1.003e-21        1.950e-09      
                   6.756e-09        1.000e-09        2.479e-09      
                  -9.676e-05       -2.120e-05       -1.144e-13      
                  -3.761e-14       -1.520e-13        6.514e-22      
                    25.0000        1               
  5.775e-09        4.284e-09        1.157e-09        2.721e-09      
                   3.127e-09        4.284e-09       -1.950e-05      
                  -2.340e-13        1.002e-21        1.950e-09      
                   6.755e-09        1.000e-09        2.479e-09      
                  -9.729e-05       -2.120e-05       -1.145e-13      
                  -3.761e-14       -1.521e-13        6.515e-22      
                    25.0000        1               
  5.780e-09        4.284e-09        1.157e-09        2.721e-09      
                   3.127e-09        4.284e-09       -1.951e-05      
                  -2.341e-13        1.003e-21        1.950e-09      
                   6.759e-09        1.000e-09        2.479e-09      
                  -9.753e-05       -2.120e-05       -1.146e-13      
                  -3.761e-14       -1.522e-13        6.520e-22      
                    25.0000        1               
  5.785e-09        4.284e-09        1.157e-09        2.721e-09      
                   3.127e-09        4.284e-09       -1.950e-05      
                  -2.340e-13        1.003e-21        1.950e-09      
                   6.756e-09        1.000e-09        2.479e-09      
                  -9.823e-05       -2.120e-05       -1.144e-13      
                  -3.761e-14       -1.520e-13        6.513e-22      
                    25.0000        1               
  5.790e-09        4.284e-09        1.157e-09        2.721e-09      
                   3.127e-09        4.284e-09       -1.950e-05      
                  -2.340e-13        1.002e-21        1.950e-09      
                   6.756e-09        1.000e-09        2.479e-09      
                  -9.872e-05       -2.120e-05       -1.144e-13      
                  -3.761e-14       -1.520e-13        6.512e-22      
                    25.0000        1               
  5.795e-09        4.284e-09        1.157e-09        2.721e-09      
                   3.127e-09        4.284e-09       -1.950e-05      
                  -2.340e-13        1.002e-21        1.950e-09      
                   6.756e-09        1.000e-09        2.479e-09      
                  -9.921e-05       -2.120e-05       -1.144e-13      
                  -3.761e-14       -1.520e-13        6.511e-22      
                    25.0000        1               
  5.800e-09        4.284e-09        1.157e-09        2.721e-09      
                   3.127e-09        4.284e-09       -1.950e-05      
                  -2.340e-13        1.003e-21        1.950e-09      
                   6.760e-09        1.000e-09        2.479e-09      
                  -9.936e-05       -2.120e-05       -1.145e-13      
                  -3.761e-14       -1.521e-13        6.518e-22      
                    25.0000        1               
