Using: /proj/cad/synopsys/synopsys_2018/hspice_vO-2018.09-2/hspice/linux64/hspice dff_hspice1.sp
 ****** HSPICE -- O-2018.09-2 linux64 (Oct 18 2018) ******                      
  Copyright (c) 1986 - 2024 by Synopsys, Inc. All Rights Reserved.              
  This software and the associated documentation are proprietary
  to Synopsys, Inc. This software may only be used in accordance
  with the terms and conditions of a written license agreement with
  Synopsys, Inc. All other use, reproduction, or distribution of
  this software is strictly prohibited.
  Input File: dff_hspice1.sp                                                    
  Command line options: /proj/cad/synopsys/synopsys_2018/hspice_vO-2018.09-2/hspice/linux64/hspice dff_hspice1.sp
 lic:  
 lic: FLEXlm: SDK_11.6.9.6 
 lic: USER:   nss230004            HOSTNAME: engnx02a.utdallas.edu 
 lic: HOSTID: "b02628e85120"       PID:      472 
 lic: Using FLEXlm license file: 
 lic: 1700@engdmv.utdallas.edu 
 lic: Checkout 1 hspice 
 lic: License/Maintenance for hspice will expire on 30-jun-2025/2023.12 
 lic: 1(in_use)/50(total) FLOATING license(s) on SERVER 1700@engdmv.utdallas.edu 
 lic:   
  **warning** (dff_hspice1.sp:20) the element "0.6v" declared without nodes and value. Please enter valid nodes with corresponding value.
  **warning** (dff_hspice1.sp:22) the element "0.6v" declared without nodes and value. Please enter valid nodes with corresponding value.
  **warning** (dff_hspice1.sp:24) the element "0.6v" declared without nodes and value. Please enter valid nodes with corresponding value.
  **warning** (dff_hspice1.sp:26) the element "0.6v" declared without nodes and value. Please enter valid nodes with corresponding value.
  **warning** (dff_hspice1.sp:28) the element "0.6v" declared without nodes and value. Please enter valid nodes with corresponding value.
  **warning** (dff_hspice1.sp:30) the element "0.6v" declared without nodes and value. Please enter valid nodes with corresponding value.
  **warning** (dff_hspice1.sp:23) measure result trise redefined, ignored the previous.
  **warning** (dff_hspice1.sp:25) measure result tfall redefined, ignored the previous.
  **warning** (dff_hspice1.sp:27) measure result trise redefined, ignored the previous.
  **warning** (dff_hspice1.sp:29) measure result tfall redefined, ignored the previous.
  **warning** (dff_hspice1.sp:41) measure result t1 redefined, ignored the previous.
  **warning** (dff_hspice1.sp:42) measure result t1 redefined, ignored the previous.
  **warning** (dff_hspice1.sp:45) measure result t3 redefined, ignored the previous.
  **warning** (dff_hspice1.sp:46) measure result t3 redefined, ignored the previous.

*pvaI* current limit stacksize=8388608, set new limit stacksize=62914560
 --------------------------------------------------------
|                                                        |
|             Synopsys Unified Verilog-A (pVA)           |
|                                                        |
|           Machine Name: engnx02a.utdallas.edu          |
| Copyright (c) 2015 Synopsys Inc., All Rights Reserved. |
|                                                        |
 --------------------------------------------------------

libepva built by pvamgr synmake_pva_build  on Thu Sep 27 15:54:02 PDT 2018 - p4:5232807
HSP_HOME:   /proj/cad/synopsys/synopsys_2018/hspice_vO-2018.09-2/hspice
HSP_ARCH:   linux64
HSP_GCC :   /proj/cad/synopsys/synopsys_2018/hspice_vO-2018.09-2/hspice/GNU/linux64/gcc/bin/gcc -m64 
HSP_GCC_VER:   6.2.0
Working-Dir: /home/011/n/ns/nss230004/cad/gf65/tutorial/dff/HSPICE
Args:        -p hsp -t spi -f dff_hspice1.pvadir/pvaHDL.lis -o dff_hspice1.pvadir 

### optimize mode ###

Begin of pVA compiling on Wed Nov 13 10:34:21 2024	GTM/In-use: 0.6250/0.5384 MB

Parsing '/proj/cad/library/mosis/GF65_LPe/cmos10lpe_CDS_oa_dl064_11_20160415/models/YI-SM00030/Hspice/models/./ncap.va'
Parsing include file '/proj/cad/synopsys/synopsys_2018/hspice_vO-2018.09-2/hspice/include/constants.vams'
Parsing include file '/proj/cad/synopsys/synopsys_2018/hspice_vO-2018.09-2/hspice/include/disciplines.vams'
Parsing '/proj/cad/library/mosis/GF65_LPe/cmos10lpe_CDS_oa_dl064_11_20160415/models/YI-SM00030/Hspice/models/./dgncap.va'
Parsing include file '/proj/cad/synopsys/synopsys_2018/hspice_vO-2018.09-2/hspice/include/constants.vams'
Parsing include file '/proj/cad/synopsys/synopsys_2018/hspice_vO-2018.09-2/hspice/include/disciplines.vams'
Parsing '/proj/cad/library/mosis/GF65_LPe/cmos10lpe_CDS_oa_dl064_11_20160415/models/YI-SM00030/Hspice/models/./pcap.va'
Parsing include file '/proj/cad/synopsys/synopsys_2018/hspice_vO-2018.09-2/hspice/include/constants.vams'
Parsing include file '/proj/cad/synopsys/synopsys_2018/hspice_vO-2018.09-2/hspice/include/disciplines.vams'
Parsing '/proj/cad/library/mosis/GF65_LPe/cmos10lpe_CDS_oa_dl064_11_20160415/models/YI-SM00030/Hspice/models/./hacap.va'
Parsing include file '/proj/cad/synopsys/synopsys_2018/hspice_vO-2018.09-2/hspice/include/constants.vams'
Parsing include file '/proj/cad/synopsys/synopsys_2018/hspice_vO-2018.09-2/hspice/include/disciplines.vams'
Parsing '/proj/cad/library/mosis/GF65_LPe/cmos10lpe_CDS_oa_dl064_11_20160415/models/YI-SM00030/Hspice/models/./esd_modules.va'
Parsing include file '/proj/cad/synopsys/synopsys_2018/hspice_vO-2018.09-2/hspice/include/constants.vams'
Parsing include file '/proj/cad/synopsys/synopsys_2018/hspice_vO-2018.09-2/hspice/include/disciplines.vams'
Parsing '/proj/cad/library/mosis/GF65_LPe/cmos10lpe_CDS_oa_dl064_11_20160415/models/YI-SM00030/Hspice/models/single_rcline.va'
Parsing include file '/proj/cad/synopsys/synopsys_2018/hspice_vO-2018.09-2/hspice/include/constants.vams'
Parsing include file '/proj/cad/synopsys/synopsys_2018/hspice_vO-2018.09-2/hspice/include/disciplines.vams'
Parsing '/proj/cad/library/mosis/GF65_LPe/cmos10lpe_CDS_oa_dl064_11_20160415/models/YI-SM00030/Hspice/models/single_cpw.va'
Parsing include file '/proj/cad/synopsys/synopsys_2018/hspice_vO-2018.09-2/hspice/include/constants.vams'
Parsing include file '/proj/cad/synopsys/synopsys_2018/hspice_vO-2018.09-2/hspice/include/disciplines.vams'
Parsing '/proj/cad/library/mosis/GF65_LPe/cmos10lpe_CDS_oa_dl064_11_20160415/models/YI-SM00030/Hspice/models/coupled_rcline.va'
Parsing include file '/proj/cad/synopsys/synopsys_2018/hspice_vO-2018.09-2/hspice/include/constants.vams'
Parsing include file '/proj/cad/synopsys/synopsys_2018/hspice_vO-2018.09-2/hspice/include/disciplines.vams'
Parsing '/proj/cad/library/mosis/GF65_LPe/cmos10lpe_CDS_oa_dl064_11_20160415/models/YI-SM00030/Hspice/models/coupled_cpw.va'
Parsing include file '/proj/cad/synopsys/synopsys_2018/hspice_vO-2018.09-2/hspice/include/constants.vams'
Parsing include file '/proj/cad/synopsys/synopsys_2018/hspice_vO-2018.09-2/hspice/include/disciplines.vams'

End of pVA compiling on Wed Nov 13 10:34:21 2024	GTM/In-use: 33.6250/33.4631 MB


End of build pVA DB on Wed Nov 13 10:34:22 2024	GTM/In-use: 46.1250/46.0357 MB

*pvaI* Module (mosvarcap): 2 unexpanded port, 0 init, 85 behav, 5 contrib, 53/76 expr(s)
*pvaI*        No DIS, 0/0 afCount, 0 MT, dlg, IO(0/0/0/0)
*pvaI*        0 gmdIsThreadSafe 
*pvaI*        0 const-G and 0 const-C, No switchBranch, 22 bypassOpt, 0 bus2scalar, 0 vwb
*pvaI*        set_va_exp = 80 [80.0, 704.0] set by default
*pvaW*        variable 'fs_init' initialized but not used in RHS, deleted (/proj/cad/library/mosis/GF65_LPe/cmos10lpe_CDS_oa_dl064_11_20160415/models/YI-SM00030/Hspice/models/./ncap.va:83)
*pvaW*                   To relax this rule, use 'setenv PVA_KEEP_VARS 1' to keep variables for probing.
*pvaW*        variable 'fp_init' initialized but not used in RHS, deleted (/proj/cad/library/mosis/GF65_LPe/cmos10lpe_CDS_oa_dl064_11_20160415/models/YI-SM00030/Hspice/models/./ncap.va:159)
*pvaW*        variable 'ilast' initialized but not used in RHS, deleted (/proj/cad/library/mosis/GF65_LPe/cmos10lpe_CDS_oa_dl064_11_20160415/models/YI-SM00030/Hspice/models/./ncap.va:149)
*pvaW*        variable 'jlast' initialized but not used in RHS, deleted (/proj/cad/library/mosis/GF65_LPe/cmos10lpe_CDS_oa_dl064_11_20160415/models/YI-SM00030/Hspice/models/./ncap.va:204)
*pvaI*        generated 3 flow node(s) during compilation.
*pvaI* Module (dgmosvarcap): 2 unexpanded port, 0 init, 84 behav, 4 contrib, 53/76 expr(s)
*pvaI*        No DIS, 0/0 afCount, 0 MT, dlg, IO(0/0/0/0)
*pvaI*        0 gmdIsThreadSafe 
*pvaI*        0 const-G and 0 const-C, No switchBranch, 22 bypassOpt, 0 bus2scalar, 0 vwb
*pvaI*        set_va_exp = 80 [80.0, 704.0] set by default
*pvaW*        variable 'fs_init' initialized but not used in RHS, deleted (/proj/cad/library/mosis/GF65_LPe/cmos10lpe_CDS_oa_dl064_11_20160415/models/YI-SM00030/Hspice/models/./dgncap.va:83)
*pvaW*        variable 'fp_init' initialized but not used in RHS, deleted (/proj/cad/library/mosis/GF65_LPe/cmos10lpe_CDS_oa_dl064_11_20160415/models/YI-SM00030/Hspice/models/./dgncap.va:159)
*pvaW*        variable 'ilast' initialized but not used in RHS, deleted (/proj/cad/library/mosis/GF65_LPe/cmos10lpe_CDS_oa_dl064_11_20160415/models/YI-SM00030/Hspice/models/./dgncap.va:149)
*pvaW*        variable 'jlast' initialized but not used in RHS, deleted (/proj/cad/library/mosis/GF65_LPe/cmos10lpe_CDS_oa_dl064_11_20160415/models/YI-SM00030/Hspice/models/./dgncap.va:204)
*pvaW*        variable 'leak' initialized but not used in RHS, deleted (/proj/cad/library/mosis/GF65_LPe/cmos10lpe_CDS_oa_dl064_11_20160415/models/YI-SM00030/Hspice/models/./dgncap.va:74)
*pvaI*        generated 3 flow node(s) during compilation.
*pvaI* Module (veripcap): 2 unexpanded port, 0 init, 86 behav, 5 contrib, 53/77 expr(s)
*pvaI*        No DIS, 0/0 afCount, 0 MT, dlg, IO(0/0/0/0)
*pvaI*        0 gmdIsThreadSafe 
*pvaI*        0 const-G and 0 const-C, No switchBranch, 22 bypassOpt, 0 bus2scalar, 0 vwb
*pvaI*        set_va_exp = 80 [80.0, 704.0] set by default
*pvaW*        variable 'fs_init' initialized but not used in RHS, deleted (/proj/cad/library/mosis/GF65_LPe/cmos10lpe_CDS_oa_dl064_11_20160415/models/YI-SM00030/Hspice/models/./pcap.va:87)
*pvaW*        variable 'fp_init' initialized but not used in RHS, deleted (/proj/cad/library/mosis/GF65_LPe/cmos10lpe_CDS_oa_dl064_11_20160415/models/YI-SM00030/Hspice/models/./pcap.va:163)
*pvaW*        variable 'ilast' initialized but not used in RHS, deleted (/proj/cad/library/mosis/GF65_LPe/cmos10lpe_CDS_oa_dl064_11_20160415/models/YI-SM00030/Hspice/models/./pcap.va:153)
*pvaW*        variable 'jlast' initialized but not used in RHS, deleted (/proj/cad/library/mosis/GF65_LPe/cmos10lpe_CDS_oa_dl064_11_20160415/models/YI-SM00030/Hspice/models/./pcap.va:208)
*pvaI*        generated 3 flow node(s) during compilation.
*pvaI* Module (havarcap): 2 unexpanded port, 0 init, 41 behav, 1 contrib, 28/38 expr(s)
*pvaI*        Has DIS(DT), 0/0 afCount, 0 MT, dlg, IO(0/0/1/0)
*pvaI*        0 gmdIsThreadSafe (DT)
*pvaI*        1 const-G and 0 const-C, No switchBranch, 22 bypassOpt, 0 bus2scalar, 0 vwb
*pvaI*        set_va_exp = 80 [80.0, 704.0] set by default
*pvaI*        generated 0 flow node(s) during compilation.
*pvaI* Module (It2_monitor): 2 unexpanded port, 0 init, 5 behav, 1 contrib, 22/1 expr(s)
*pvaI*        Has DIS(SB), 0/0 afCount, 0 MT, dlg, IO(0/1/1/1)
*pvaI*        0 gmdIsThreadSafe (SB)
*pvaI*        0 const-G and 0 const-C, Has switchBranch, 22 bypassOpt, 0 bus2scalar, 0 vwb
*pvaI*        set_va_exp = 80 [80.0, 704.0] set by default
*pvaI*        generated 0 flow node(s) during compilation.
*pvaI* Module (single_rcline): 3 unexpanded port, 0 init, 1473 behav, 5 contrib, 47/1727 expr(s)
*pvaI* p.89 (LRM 2.2) parameter 'th' used inside analog function (/proj/cad/library/mosis/GF65_LPe/cmos10lpe_CDS_oa_dl064_11_20160415/models/YI-SM00030/Hspice/models/single_rcline.va:1044)
*pvaI*        Has DIS(DT ST), 3/11 afCount, 0 MT, dlg, IO(0/0/1/0)
*pvaI*        0 gmdIsThreadSafe (DT ST)
*pvaI*        3 const-G and 0 const-C, No switchBranch, 22 bypassOpt, 0 bus2scalar, 0 vwb
*pvaI*        set_va_exp = 80 [80.0, 704.0] set by default
*pvaI*        generated 0 flow node(s) during compilation.
*pvaI* Module (single_cpw): 3 unexpanded port, 0 init, 1795 behav, 40 contrib, 72/2265 expr(s)
*pvaI* p.89 (LRM 2.2) parameter 'th' used inside analog function (/proj/cad/library/mosis/GF65_LPe/cmos10lpe_CDS_oa_dl064_11_20160415/models/YI-SM00030/Hspice/models/single_cpw.va:1130)
*pvaI*        Has DIS(DT IT ST), 17/40 afCount, 0 MT, dlg, IO(0/0/1/0)
*pvaI*        0 gmdIsThreadSafe (DT IT ST)
*pvaI*        0 const-G and 0 const-C, No switchBranch, 0 bypassOpt, 0 bus2scalar, 0 vwb
*pvaI*        set_va_exp = 80 [80.0, 704.0] set by default
*pvaW*        variable 'Coxo_None' declared but not used in RHS, deleted (/proj/cad/library/mosis/GF65_LPe/cmos10lpe_CDS_oa_dl064_11_20160415/models/YI-SM00030/Hspice/models/single_cpw.va:178)
*pvaI*        generated 3 flow node(s) during compilation.
*pvaI* Module (coupled_rcline): 5 unexpanded port, 0 init, 1778 behav, 13 contrib, 65/2017 expr(s)
*pvaI* p.89 (LRM 2.2) parameter 'th' used inside analog function (/proj/cad/library/mosis/GF65_LPe/cmos10lpe_CDS_oa_dl064_11_20160415/models/YI-SM00030/Hspice/models/coupled_rcline.va:1094)
*pvaI*        Has DIS(ST), 5/10 afCount, 0 MT, dlg, IO(0/0/1/0)
*pvaI*        0 gmdIsThreadSafe (ST)
*pvaI*        0 const-G and 0 const-C, No switchBranch, 22 bypassOpt, 0 bus2scalar, 0 vwb
*pvaI*        set_va_exp = 80 [80.0, 704.0] set by default
*pvaI*        generated 0 flow node(s) during compilation.
*pvaI* Module (coupled_cpw): 5 unexpanded port, 0 init, 2364 behav, 90 contrib, 70/2827 expr(s)
*pvaI* p.89 (LRM 2.2) parameter 'th' used inside analog function (/proj/cad/library/mosis/GF65_LPe/cmos10lpe_CDS_oa_dl064_11_20160415/models/YI-SM00030/Hspice/models/coupled_cpw.va:1205)
*pvaI* p.89 (LRM 2.2) parameter 'd' used inside analog function (/proj/cad/library/mosis/GF65_LPe/cmos10lpe_CDS_oa_dl064_11_20160415/models/YI-SM00030/Hspice/models/coupled_cpw.va:1918)
*pvaI*        Has DIS(DT IT ST), 14/31 afCount, 0 MT, dlg, IO(0/0/1/0)
*pvaI*        0 gmdIsThreadSafe (DT IT ST)
*pvaI*        0 const-G and 0 const-C, No switchBranch, 0 bypassOpt, 0 bus2scalar, 0 vwb
*pvaI*        set_va_exp = 80 [80.0, 704.0] set by default
*pvaW*        variable 'M0' initialized but not used in RHS, deleted (/proj/cad/library/mosis/GF65_LPe/cmos10lpe_CDS_oa_dl064_11_20160415/models/YI-SM00030/Hspice/models/coupled_cpw.va:2344)
*pvaI*        generated 6 flow node(s) during compilation.

End of pVA genC on Wed Nov 13 10:34:27 2024	GTM/In-use: 61.0000/60.2322 MB

*pvaI* #### Total 4247 line-size(s), 463/9104 expr(s), 164 contr(s), 0 init(s), 7711 behav(s), 26 port(s)

Generating dff_hspice1.pvadir/pvaRTL_linux64.so


End of submitting pVA dff_hspice1.pvadir/pvaRTL.mak on Wed Nov 13 10:34:28 2024	GTM/In-use: 61.0000/60.2323 MB


End of pVA elaboration on Wed Nov 13 10:34:28 2024	GTM/In-use: 61.0000/59.8564 MB

  **warning** (/proj/cad/library/mosis/GF65_LPe/cmos10lpe_CDS_oa_dl064_11_20160415/models/YI-SM00030/Hspice/models/./nfet.inc:222) Model nfet device geometries will not be checked against the limits set by lmin, lmax, wmin and wmax. To enable this check, add a period(.) to the model name(i.e. enable model selector).


 **warning** Element        0:vd               is missing terminal voltage 1.20000E-08 used by HSPICE.
  **warning** (dff.pex.sp:7) Global net name, "gnd", in subckt pin list. The pin will be connected to the local net. Recommend to not use global net names in subckt pin lists.
 Loading pVA library dff_hspice1.pvadir/pvaRTL_linux64.so...
1****** HSPICE -- O-2018.09-2 linux64 (Oct 18 2018) ******                      
 ******  
 $example hspice setup file

 ****** circuit name directory
 circuit number to circuit name directory
   number circuitname                     definition         multiplier
        0 main circuit
        1 xi.                             dff                1.00 
        2 xi.xd0_noxref.                  diodenwx           1.00 
        3 xi.xmmn4.                       nfet               1.00 
        4 xi.xmmn3.                       nfet               1.00 
        5 xi.xmmn7.                       nfet               1.00 
        6 xi.xmmn8.                       nfet               1.00 
        7 xi.xmmp6.                       nfet               1.00 
        8 xi.xmmp5.                       nfet               1.00 
        9 xi.xmmn2.                       nfet               1.00 
       10 xi.xmmn1.                       nfet               1.00 
       11 xi.xmmn15.                      nfet               1.00 
       12 xi.xmmn10.                      nfet               1.00 
       13 xi.xmmn9.                       nfet               1.00 
       14 xi.xmmn13.                      nfet               1.00 
       15 xi.xmmn14.                      nfet               1.00 
       16 xi.xmmn12.                      nfet               1.00 
       17 xi.xmmn11.                      nfet               1.00 
       18 xi.xmmp4.                       pfet               1.00 
       19 xi.xmmp3.                       pfet               1.00 
       20 xi.xmmp7.                       pfet               1.00 
       21 xi.xmmp8.                       pfet               1.00 
       22 xi.xmmn6.                       pfet               1.00 
       23 xi.xmmn5.                       pfet               1.00 
       24 xi.xmmp2.                       pfet               1.00 
       25 xi.xmmp1.                       pfet               1.00 
       26 xi.xmmp15.                      pfet               1.00 
       27 xi.xmmp10.                      pfet               1.00 
       28 xi.xmmp9.                       pfet               1.00 
       29 xi.xmmp13.                      pfet               1.00 
       30 xi.xmmp14.                      pfet               1.00 
       31 xi.xmmp12.                      pfet               1.00 
       32 xi.xmmp11.                      pfet               1.00 
       33 xi.x_pm_dff%gnd!.               pm_dff%gnd!        1.00 
       34 xi.x_pm_dff%a.                  pm_dff%a           1.00 
       35 xi.x_pm_dff%b.                  pm_dff%b           1.00 
       36 xi.x_pm_dff%!clk.               pm_dff%!clk        1.00 
       37 xi.x_pm_dff%clk.                pm_dff%clk         1.00 
       38 xi.x_pm_dff%q.                  pm_dff%q           1.00 
       39 xi.x_pm_dff%c.                  pm_dff%c           1.00 
       40 xi.x_pm_dff%e.                  pm_dff%e           1.00 
       41 xi.x_pm_dff%vdd!.               pm_dff%vdd!        1.00 
       42 xi.x_pm_dff%d.                  pm_dff%d           1.00 
       43 xi.x_pm_dff%r.                  pm_dff%r           1.00 
 ******  
 $example hspice setup file

 ****** diode model parameters tnom=  25.000 temp=  25.000 ******
 ********************************************************
 *** common model parameters model name:   2:nwelldio****
 ********************************************************

     names  values   units     names  values   units     names  values   units
     -----  ------   -----     -----  ------   -----     -----  ------   -----

   1*** dc breakdown parameters ***
       vb=  10.00  volts        ibv=   1.00m amps   

   2*** parasitic resistance parameters ***
       rs=  20.00p ohms   

   3*** capacitance parameters ***
       fc= 500.00m              fcs= 500.00m                m= 281.10m        
     mjsw= 263.40m               pb= 433.50m volts        php= 884.40m volts  
       tt=   0.    secs         cjo= 125.00u f/area       cjp= 800.00p f/pj   

   4*** temperature effect parameters ***
     tlev=   1.00             tlevc=   1.00               tcv=   0.    /deg   
      trs=   0.    /deg         cta=   0.    /deg         ctp=   0.    /deg   
      xti=   1.29            xtitun=   3.00               keg=   1.00         
       eg=   1.26  ev          gap1= 702.00u  ev/deg     gap2=   1.11k  deg   
     ttt1=   0.    /deg        ttt2=   0.    /deg2        tm1=   0.    /deg   
      tm2=   0.    /deg2        tpb=   0.    v/deg k     tphp=   0.    v/deg k
     tref=  25.00   deg c 

   5*** noise parameters ***
       kf=   0.                  af=   1.00         

   ***  level   1  model parameters  ***

    level=   1.00                is=   1.08u amps         jsw=   1.22p amps   
        n=   1.03               nbv=   1.03                ik=   0.    amp    
     area=   1.00                pj=   0.                 ikr=   0.    amp    
    expli=   0.    amps      explir=   0.    amps        jtun=   0.    amps   
   jtunsw=   0.    amps        ntun=  30.00         
  
 ******  
 $example hspice setup file

 ****** mos   model parameters tnom=  25.000 temp=  25.000 ******
 Model file: /proj/cad/library/mosis/GF65_LPe/cmos10lpe_CDS_oa_dl064_11_20160415/models/YI-SM00030/Hspice/models/./nfet.inc
 Model line:          222
 Model Name: nfet  
 BSIM4 Model (Level 54)
    MOBMOD = 0
    BINUNIT = 1
    PARAMCHK = 0
    CAPMOD = 2
    DIOMOD = 1
    RDSMOD = 0
    TRNQSMOD = 0
    ACNQSMOD = 0
    RBODYMOD = 0
    RGATEMOD = 0
    PERMOD = 1
    GEOMOD = 0
    RGEOMOD = 0
    FNOIMOD = 1
    TNOIMOD = 0
    IGCMOD = 1
    IGBMOD = 1
    STIMOD = 1
    VBFWDMOD = 0
    VERSION =    4.5 
    TOXREF = 2.51e-09 
    TOXE = 2.6e-09 
    TOXP = 2.35e-09 
    TOXM = 2.51e-09 
    DTOX =      0 
    EPSROX =    3.9 
    CDSC =      0 
    CDSCB =      0 
    CDSCD =      0 
    CIT =      0 
    NFACTOR =  1.496 
    XJ =  1e-07 
    VSAT = 1.67e+05 
    A0 =  1.045 
    AGS =  0.589 
    A1 =      0 
    A2 =  0.598 
    AT = 0.001604 
    KETA = -0.05307 
    NSUB =  6e+16 
    NDEP = 3.181e+17 
    NSD =  1e+20 
    NGATE =  1e+21 
    GAMMA1 =      0 
    GAMMA2 =      0 
    VBX =      0 
    VBM =     -3 
    XT = 1.55e-07 
    K1 =  0.435 
    KT1 = -0.185 
    KT1L = -6e-10 
    KT2 =      0 
    K2 = -0.06627 
    K3 = -0.05758 
    K3B =      0 
    LPE0 = 4.737e-08 
    LPEB =      0 
    DVTP0 = 3.078e-07 
    DVTP1 =      0 
    W0 =  1e-09 
    DVT0 =   7.55 
    DVT1 = 0.5562 
    DVT2 = 0.04519 
    DVT0W =      0 
    DVT1W = 4.278e+05 
    DVT2W =  0.275 
    DROUT = 0.9416 
    DSUB = 0.3332 
    VTH0 = 0.4532 
    EU =   1.67 
    UA = 6.658e-11 
    UA1 =      0 
    UB = 1.717e-18 
    UB1 =      0 
    UC = 9.303e-11 
    UC1 =      0 
    U0 =    412 
    UTE = -0.9506 
    VOFF = -0.1544 
    VOFFL = -5.043e-09 
    MINV = -0.3827 
    FPROUT =  362.5 
    PDITS = 0.1388 
    PDITSD = 0.3964 
    PDITSL = 1.095e+06 
    DELTA = 0.01109 
    RDSW =    110 
    RDSWMIN =      0 
    RDWMIN =    180 
    RSWMIN =    180 
    RDW =    100 
    RSW =    100 
    PRWG =      0 
    PRWB =      0 
    PRT =      0 
    ETA0 = 0.0665 
    ETAB =      0 
    PCLM = 0.2847 
    PDIBLC1 =  1e-05 
    PDIBLC2 =  1e-05 
    PDIBLCB =      0 
    PSCBE1 =  5e+09 
    PSCBE2 =  5e-06 
    PVAG = 0.9788 
    WR =      1 
    DWG =      0 
    DWB =      0 
    XW = -5e-09 
    XWREF = -5e-09 
    XL = -3e-09 
    XLREF = -3e-09 
    B0 =      0 
    B1 =      0 
    ALPHA0 = 2.68e-12 
    ALPHA1 =      0 
    AGIDL = 4.532e-08 
    BGIDL = 2.958e+09 
    CGIDL =   0.67 
    PHIN = 0.1449 
    EGIDL =   0.01 
    AIGC = 0.01179 
    BIGC = 0.001851 
    CIGC = 0.02865 
    AIGSD = 0.009363 
    BIGSD = 0.001287 
    CIGSD = 0.05363 
    AIGBACC = 0.01246 
    BIGBACC = 0.002327 
    CIGBACC =      0 
    AIGBINV =  5.105 
    BIGBINV =   0.03 
    CIGBINV = 0.001819 
    NIGC =  2.774 
    NIGBINV =      3 
    NIGBACC =      4 
    NTOX =      1 
    EIGBINV = 0.002456 
    PIGCD =      1 
    POXEDGE =    1.3 
    XRCRG1 =     12 
    TNOIA =    1.5 
    TNOIB =    3.5 
    NTNOI =  1.554 
    XRCRG2 =      1 
    BETA0 =      2 
    IJTHDFWD = 0.001854 
    IJTHSFWD = 0.001854 
    IJTHDREV =    0.1 
    IJTHSREV =    0.1 
    XJBVD =      1 
    XJBVS =      1 
    BVD =     10 
    BVS =     10 
    VFB =     -1 
    GBMIN =  1e-12 
    RBDB =     50 
    RBPB =     50 
    RBSB =     50 
    RBPS =     50 
    RBPD =     50 
    CGSL = 1.64e-10 
    CGDL = 1.64e-10 
    CKAPPAS =    1.4 
    CKAPPAD =    1.4 
    CF =      0 
    CLC =      0 
    CLE =    0.6 
    DWC = -8e-09 
    DLC = 9.64e-09 
    DLCIG = 7.5e-09 
    DWJ =      0 
    VFBCV =     -1 
    ACDE = 0.3088 
    MOIN =  8.385 
    NOFF =  2.321 
    VOFFCV = -0.1546 
    DMCG =  1e-07 
    DMCI = 7.5e-08 
    DMDG =  1e-07 
    DMCGT =      0 
    XGW =      0 
    XGL =  5e-09 
    RSHG =     11 
    NGCON =      1 
    TCJ = 0.0008904 
    TPB = 0.001285 
    TCJSW = 0.001056 
    TPBSW = 0.0004388 
    TCJSWG = 0.0008402 
    TPBSWG = 0.001039 
    SK0 =      0 
    SK1 =      0 
    SK2 =      0 
    SL =  2e-06 
    SW =  2e-06 
    K =      0 
    LNFACTOR = 0.1398 
    LAGS =   -0.1 
    LLPE0 = 1.84e-09 
    LLPEB =  1e-35 
    LMINV = -0.00679 
    PVSAT =    130 
    PU0 =   0.05 
    TNOM =  298.1 
    CGSO = 8.2e-11 
    CGDO = 8.2e-11 
    CGBO =  1e-12 
    XPART =      0 
    RSH =     12 
    JSS = 5.603e-07 
    JSWS = 1.641e-13 
    JSWGS = 2.339e-13 
    PBS =      1 
    MJS =  0.613 
    PBSWS =    0.1 
    MJSWS = 0.09162 
    CJS = 0.00137 
    CJSWS = 6.266e-11 
    NJS =      1 
    PBSWGS =  1.118 
    MJSWGS = 0.9845 
    CJSWGS = 2.2e-10 
    XTIS =      3 
    JSD = 5.603e-07 
    JSWD = 1.641e-13 
    JSWGD = 2.339e-13 
    PBD =      1 
    MJD =  0.613 
    PBSWD =    0.1 
    MJSWD = 0.09162 
    CJD = 0.00137 
    CJSWD = 6.266e-11 
    NJD =      1 
    PBSWGD =  1.118 
    MJSWGD = 0.9845 
    CJSWGD = 2.2e-10 
    XTID =      3 
    LMLT =      1 
    WMLT =      1 
    LINT =      0 
    LL =      0 
    LLC =      0 
    LLN =      1 
    LW =      0 
    LWC =      0 
    LWN =      1 
    LWL =      0 
    LWLC =      0 
    LMIN =  6e-08 
    LMAX = 0.0001 
    WINT =      0 
    WL =      0 
    WLC =      0 
    WLN =      1 
    WW =      0 
    WWC =      0 
    WWN =      1 
    WWL =      0 
    WWLC =      0 
    WMIN = 1.2e-07 
    WMAX =      1 
    NOIA = 1.55e+42 
    NOIB = 2.11e+25 
    NOIC = 4.62e+07 
    EM = 4.1e+07 
    EF = 0.9178 
    AF =      1 
    KF = 1.2e-27 
    TRS =      0 
    TRD =      0 
    TEMPMOD  =      1 
    LAMBDA   =      0 
    VTL      =  2e+05 m/s
    LC       =  5e-09 
    XN       =      3 
    LLAMBDA  =      0 
    LVTL     =      0 
    LXN      =      0 
    WLAMBDA  =      0 
    WVTL     =      0 
    WXN      =      0 
    PLAMBDA  =      0 
    PVTL     =      0 
    PXN      =      0 
    RNOIA    =  0.577 
    RNOIB    = 0.5164 
    SAREF(SA0) = 4.5e-07 m
    SBREF(SB0) = 4.5e-07 m
    WLOD     =      0 m
    KU0      = -2.2e-09 1/m
    KVSAT    =      1 
    KVTH0    = 1.6e-09 m
    TKU0     =      0 
    LLODKU0  =      0 
    WLODKU0  =      0 
    LLODVTH  =      0 
    WLODVTH  =      0 
    LKU0     =      0 
    WKU0     =      0 
    PKU0     =      0 
    LKVTH0   =      0 
    WKVTH0   =      0 
    PKVTH0   =      0 
    STK2     =      0 
    LODK2    =      1 
    STETA0   =      0 
    LODETA0  =      1 
    LXRCRG1  =      0 
    WXRCRG1  =      0 
    PXRCRG1  =      0 
    LXRCRG2  =      0 
    WXRCRG2  =      0 
    PXRCRG2  =      0 
     *** UCB's BSIM4.4.0 new diode model is activated. ***
    *** UCB's Diode Model Parameters ***
    JTSS         =      0 
    JTSSWS       =      0 
    JTSSWGS      = 1.5e-09 
    JTSD         =      0 
    JTSSWD       =      0 
    JTSSWGD      = 1.5e-09 
    NJTS         =     20 
    NJTSSW       =     20 
    NJTSSWG      =     20 
    XTSS         =   0.02 
    XTSSWS       =   0.02 
    XTSSWGS      =   0.02 
    XTSD         =   0.02 
    XTSSWD       =   0.02 
    XTSSWGD      =   0.02 
    TNJTS        =      0 
    TNJTSSW      =      0 
    TNJTSSWG     =      0 
    VFBSDOFF     =      0 
    LVFBSDOFF    =      0 
    WVFBSDOFF    =      0 
    PVFBSDOFF    =      0 
    LINTNOI      = -3.68e-08 
    VTSS         =     10 
    VTSD         =     10 
    VTSSWS       =     10 
    VTSSWD       =     10 
    VTSSWGS      =     10 
    VTSSWGD      =     10 
    TTDIOMOD     =      1 
     *** UCB's BSIM4.5.0 new model is activated. ***
    UD         =      0 
    UD1        =      0 
    UP         =      0 
    LP         = 1.872e-08 
    TVOFF      =      0 
    TVFBSDOFF  =      0 
    RBPS0      =     50 
    RBPSL      =      0 
    RBPSW      =      0 
    RBPSNF     =      0 
    RBPD0      =     50 
    RBPDL      =      0 
    RBPDW      =      0 
    RBPDNF     =      0 
    RBPBX0     =    100 
    RBPBXL     =      0 
    RBPBXW     =      0 
    RBPBXNF    =      0 
    RBPBY0     =    100 
    RBPBYL     =      0 
    RBPBYW     =      0 
    RBPBYNF    =      0 
    RBSBX0     =    100 
    RBSBY0     =    100 
    RBDBX0     =    100 
    RBDBY0     =    100 
    RBSDBXL    =      0 
    RBSDBXW    =      0 
    RBSDBXNF   =      0 
    RBSDBYL    =      0 
    RBSDBYW    =      0 
    RBSDBYNF   =      0 
    LUD        =      0 
    LUD1       =      0 
    LUP        =      0 
    LLP        =      0 
    LTVOFF     =      0 
    LTVFBSDOFF =      0 
    WUD        =      0 
    WUD1       =      0 
    WUP        =      0 
    WLP        =      0 
    WTVOFF     =      0 
    WTVFBSDOFF =      0 
    PUD        =      0 
    PUD1       =      0 
    PUP        =      0 
    PLP        =      0 
    PTVOFF     =      0 
    PTVFBSDOFF =      0 
    WEB        =      0 
    WEC        =      0 
    KVTH0WE    =      0 
    K2WE       =      0 
    KU0WE      =      0 
    SCREF      =  1e-06 
    WPEMOD     =      0 
    LKVTH0WE   =      0 
    LK2WE      =      0 
    LKU0WE     =      0 
    WKVTH0WE   =      0 
    WK2WE      =      0 
    WKU0WE     =      0 
    PKVTH0WE   =      0 
    PK2WE      =      0 
    PKU0WE     =      0 
 Model file: /proj/cad/library/mosis/GF65_LPe/cmos10lpe_CDS_oa_dl064_11_20160415/models/YI-SM00030/Hspice/models/./nfet.inc
 Model line:          222
 Model Name: nfet  
 BSIM4 Model (Level 54)
    MOBMOD = 0
    BINUNIT = 1
    PARAMCHK = 0
    CAPMOD = 2
    DIOMOD = 1
    RDSMOD = 0
    TRNQSMOD = 0
    ACNQSMOD = 0
    RBODYMOD = 0
    RGATEMOD = 0
    PERMOD = 1
    GEOMOD = 0
    RGEOMOD = 0
    FNOIMOD = 1
    TNOIMOD = 0
    IGCMOD = 1
    IGBMOD = 1
    STIMOD = 1
    VBFWDMOD = 0
    VERSION =    4.5 
    TOXREF = 2.51e-09 
    TOXE = 2.6e-09 
    TOXP = 2.35e-09 
    TOXM = 2.51e-09 
    DTOX =      0 
    EPSROX =    3.9 
    CDSC =      0 
    CDSCB =      0 
    CDSCD =      0 
    CIT =      0 
    NFACTOR =  1.496 
    XJ =  1e-07 
    VSAT = 1.67e+05 
    A0 =  1.045 
    AGS =  0.589 
    A1 =      0 
    A2 =  0.598 
    AT = 0.001604 
    KETA = -0.05307 
    NSUB =  6e+16 
    NDEP = 3.181e+17 
    NSD =  1e+20 
    NGATE =  1e+21 
    GAMMA1 =      0 
    GAMMA2 =      0 
    VBX =      0 
    VBM =     -3 
    XT = 1.55e-07 
    K1 =  0.435 
    KT1 = -0.185 
    KT1L = -6e-10 
    KT2 =      0 
    K2 = -0.06627 
    K3 = -0.05758 
    K3B =      0 
    LPE0 = 4.737e-08 
    LPEB =      0 
    DVTP0 = 3.078e-07 
    DVTP1 =      0 
    W0 =  1e-09 
    DVT0 =   7.55 
    DVT1 = 0.5562 
    DVT2 = 0.04519 
    DVT0W =      0 
    DVT1W = 4.278e+05 
    DVT2W =  0.275 
    DROUT = 0.9416 
    DSUB = 0.3332 
    VTH0 = 0.4532 
    EU =   1.67 
    UA = 6.658e-11 
    UA1 =      0 
    UB = 1.717e-18 
    UB1 =      0 
    UC = 9.303e-11 
    UC1 =      0 
    U0 =    412 
    UTE = -0.9506 
    VOFF = -0.1544 
    VOFFL = -5.043e-09 
    MINV = -0.3827 
    FPROUT =  362.5 
    PDITS = 0.1388 
    PDITSD = 0.3964 
    PDITSL = 1.095e+06 
    DELTA = 0.01109 
    RDSW =    110 
    RDSWMIN =      0 
    RDWMIN =    180 
    RSWMIN =    180 
    RDW =    100 
    RSW =    100 
    PRWG =      0 
    PRWB =      0 
    PRT =      0 
    ETA0 = 0.0665 
    ETAB =      0 
    PCLM = 0.2847 
    PDIBLC1 =  1e-05 
    PDIBLC2 =  1e-05 
    PDIBLCB =      0 
    PSCBE1 =  5e+09 
    PSCBE2 =  5e-06 
    PVAG = 0.9788 
    WR =      1 
    DWG =      0 
    DWB =      0 
    XW = -5e-09 
    XWREF = -5e-09 
    XL = -3e-09 
    XLREF = -3e-09 
    B0 =      0 
    B1 =      0 
    ALPHA0 = 2.68e-12 
    ALPHA1 =      0 
    AGIDL = 4.532e-08 
    BGIDL = 2.958e+09 
    CGIDL =   0.67 
    PHIN = 0.1449 
    EGIDL =   0.01 
    AIGC = 0.01179 
    BIGC = 0.001851 
    CIGC = 0.02865 
    AIGSD = 0.009363 
    BIGSD = 0.001287 
    CIGSD = 0.05363 
    AIGBACC = 0.01246 
    BIGBACC = 0.002327 
    CIGBACC =      0 
    AIGBINV =  5.105 
    BIGBINV =   0.03 
    CIGBINV = 0.001819 
    NIGC =  2.774 
    NIGBINV =      3 
    NIGBACC =      4 
    NTOX =      1 
    EIGBINV = 0.002456 
    PIGCD =      1 
    POXEDGE =    1.3 
    XRCRG1 =     12 
    TNOIA =    1.5 
    TNOIB =    3.5 
    NTNOI =  1.554 
    XRCRG2 =      1 
    BETA0 =      2 
    IJTHDFWD = 0.001854 
    IJTHSFWD = 0.001854 
    IJTHDREV =    0.1 
    IJTHSREV =    0.1 
    XJBVD =      1 
    XJBVS =      1 
    BVD =     10 
    BVS =     10 
    VFB =     -1 
    GBMIN =  1e-12 
    RBDB =     50 
    RBPB =     50 
    RBSB =     50 
    RBPS =     50 
    RBPD =     50 
    CGSL = 1.64e-10 
    CGDL = 1.64e-10 
    CKAPPAS =    1.4 
    CKAPPAD =    1.4 
    CF =      0 
    CLC =      0 
    CLE =    0.6 
    DWC = -8e-09 
    DLC = 9.64e-09 
    DLCIG = 7.5e-09 
    DWJ =      0 
    VFBCV =     -1 
    ACDE = 0.3088 
    MOIN =  8.385 
    NOFF =  2.321 
    VOFFCV = -0.1546 
    DMCG =  1e-07 
    DMCI = 7.5e-08 
    DMDG =  1e-07 
    DMCGT =      0 
    XGW =      0 
    XGL =  5e-09 
    RSHG =     11 
    NGCON =      1 
    TCJ = 0.0008904 
    TPB = 0.001285 
    TCJSW = 0.001056 
    TPBSW = 0.0004388 
    TCJSWG = 0.0008402 
    TPBSWG = 0.001039 
    SK0 =      0 
    SK1 =      0 
    SK2 =      0 
    SL =  2e-06 
    SW =  2e-06 
    K =      0 
    LNFACTOR = 0.1398 
    LAGS =   -0.1 
    LLPE0 = 1.84e-09 
    LLPEB =  1e-35 
    LMINV = -0.00679 
    PVSAT =    130 
    PU0 =   0.05 
    TNOM =  298.1 
    CGSO = 8.2e-11 
    CGDO = 8.2e-11 
    CGBO =  1e-12 
    XPART =      0 
    RSH =     12 
    JSS = 5.603e-07 
    JSWS = 1.641e-13 
    JSWGS = 2.339e-13 
    PBS =      1 
    MJS =  0.613 
    PBSWS =    0.1 
    MJSWS = 0.09162 
    CJS = 0.00137 
    CJSWS = 6.266e-11 
    NJS =      1 
    PBSWGS =  1.118 
    MJSWGS = 0.9845 
    CJSWGS = 2.2e-10 
    XTIS =      3 
    JSD = 5.603e-07 
    JSWD = 1.641e-13 
    JSWGD = 2.339e-13 
    PBD =      1 
    MJD =  0.613 
    PBSWD =    0.1 
    MJSWD = 0.09162 
    CJD = 0.00137 
    CJSWD = 6.266e-11 
    NJD =      1 
    PBSWGD =  1.118 
    MJSWGD = 0.9845 
    CJSWGD = 2.2e-10 
    XTID =      3 
    LMLT =      1 
    WMLT =      1 
    LINT =      0 
    LL =      0 
    LLC =      0 
    LLN =      1 
    LW =      0 
    LWC =      0 
    LWN =      1 
    LWL =      0 
    LWLC =      0 
    LMIN =  6e-08 
    LMAX = 0.0001 
    WINT =      0 
    WL =      0 
    WLC =      0 
    WLN =      1 
    WW =      0 
    WWC =      0 
    WWN =      1 
    WWL =      0 
    WWLC =      0 
    WMIN = 1.2e-07 
    WMAX =      1 
    NOIA = 1.55e+42 
    NOIB = 2.11e+25 
    NOIC = 4.62e+07 
    EM = 4.1e+07 
    EF = 0.9178 
    AF =      1 
    KF = 1.2e-27 
    TRS =      0 
    TRD =      0 
    TEMPMOD  =      1 
    LAMBDA   =      0 
    VTL      =  2e+05 m/s
    LC       =  5e-09 
    XN       =      3 
    LLAMBDA  =      0 
    LVTL     =      0 
    LXN      =      0 
    WLAMBDA  =      0 
    WVTL     =      0 
    WXN      =      0 
    PLAMBDA  =      0 
    PVTL     =      0 
    PXN      =      0 
    RNOIA    =  0.577 
    RNOIB    = 0.5164 
    SAREF(SA0) = 4.5e-07 m
    SBREF(SB0) = 4.5e-07 m
    WLOD     =      0 m
    KU0      = -2.2e-09 1/m
    KVSAT    =      1 
    KVTH0    = 1.6e-09 m
    TKU0     =      0 
    LLODKU0  =      0 
    WLODKU0  =      0 
    LLODVTH  =      0 
    WLODVTH  =      0 
    LKU0     =      0 
    WKU0     =      0 
    PKU0     =      0 
    LKVTH0   =      0 
    WKVTH0   =      0 
    PKVTH0   =      0 
    STK2     =      0 
    LODK2    =      1 
    STETA0   =      0 
    LODETA0  =      1 
    LXRCRG1  =      0 
    WXRCRG1  =      0 
    PXRCRG1  =      0 
    LXRCRG2  =      0 
    WXRCRG2  =      0 
    PXRCRG2  =      0 
     *** UCB's BSIM4.4.0 new diode model is activated. ***
    *** UCB's Diode Model Parameters ***
    JTSS         =      0 
    JTSSWS       =      0 
    JTSSWGS      = 1.5e-09 
    JTSD         =      0 
    JTSSWD       =      0 
    JTSSWGD      = 1.5e-09 
    NJTS         =     20 
    NJTSSW       =     20 
    NJTSSWG      =     20 
    XTSS         =   0.02 
    XTSSWS       =   0.02 
    XTSSWGS      =   0.02 
    XTSD         =   0.02 
    XTSSWD       =   0.02 
    XTSSWGD      =   0.02 
    TNJTS        =      0 
    TNJTSSW      =      0 
    TNJTSSWG     =      0 
    VFBSDOFF     =      0 
    LVFBSDOFF    =      0 
    WVFBSDOFF    =      0 
    PVFBSDOFF    =      0 
    LINTNOI      = -3.68e-08 
    VTSS         =     10 
    VTSD         =     10 
    VTSSWS       =     10 
    VTSSWD       =     10 
    VTSSWGS      =     10 
    VTSSWGD      =     10 
    TTDIOMOD     =      1 
     *** UCB's BSIM4.5.0 new model is activated. ***
    UD         =      0 
    UD1        =      0 
    UP         =      0 
    LP         = 1.872e-08 
    TVOFF      =      0 
    TVFBSDOFF  =      0 
    RBPS0      =     50 
    RBPSL      =      0 
    RBPSW      =      0 
    RBPSNF     =      0 
    RBPD0      =     50 
    RBPDL      =      0 
    RBPDW      =      0 
    RBPDNF     =      0 
    RBPBX0     =    100 
    RBPBXL     =      0 
    RBPBXW     =      0 
    RBPBXNF    =      0 
    RBPBY0     =    100 
    RBPBYL     =      0 
    RBPBYW     =      0 
    RBPBYNF    =      0 
    RBSBX0     =    100 
    RBSBY0     =    100 
    RBDBX0     =    100 
    RBDBY0     =    100 
    RBSDBXL    =      0 
    RBSDBXW    =      0 
    RBSDBXNF   =      0 
    RBSDBYL    =      0 
    RBSDBYW    =      0 
    RBSDBYNF   =      0 
    LUD        =      0 
    LUD1       =      0 
    LUP        =      0 
    LLP        =      0 
    LTVOFF     =      0 
    LTVFBSDOFF =      0 
    WUD        =      0 
    WUD1       =      0 
    WUP        =      0 
    WLP        =      0 
    WTVOFF     =      0 
    WTVFBSDOFF =      0 
    PUD        =      0 
    PUD1       =      0 
    PUP        =      0 
    PLP        =      0 
    PTVOFF     =      0 
    PTVFBSDOFF =      0 
    WEB        =      0 
    WEC        =      0 
    KVTH0WE    =      0 
    K2WE       =      0 
    KU0WE      =      0 
    SCREF      =  1e-06 
    WPEMOD     =      0 
    LKVTH0WE   =      0 
    LK2WE      =      0 
    LKU0WE     =      0 
    WKVTH0WE   =      0 
    WK2WE      =      0 
    WKU0WE     =      0 
    PKVTH0WE   =      0 
    PK2WE      =      0 
    PKU0WE     =      0 
 Model file: /proj/cad/library/mosis/GF65_LPe/cmos10lpe_CDS_oa_dl064_11_20160415/models/YI-SM00030/Hspice/models/./nfet.inc
 Model line:          222
 Model Name: nfet  
 BSIM4 Model (Level 54)
    MOBMOD = 0
    BINUNIT = 1
    PARAMCHK = 0
    CAPMOD = 2
    DIOMOD = 1
    RDSMOD = 0
    TRNQSMOD = 0
    ACNQSMOD = 0
    RBODYMOD = 0
    RGATEMOD = 0
    PERMOD = 1
    GEOMOD = 0
    RGEOMOD = 0
    FNOIMOD = 1
    TNOIMOD = 0
    IGCMOD = 1
    IGBMOD = 1
    STIMOD = 1
    VBFWDMOD = 0
    VERSION =    4.5 
    TOXREF = 2.51e-09 
    TOXE = 2.6e-09 
    TOXP = 2.35e-09 
    TOXM = 2.51e-09 
    DTOX =      0 
    EPSROX =    3.9 
    CDSC =      0 
    CDSCB =      0 
    CDSCD =      0 
    CIT =      0 
    NFACTOR =  1.496 
    XJ =  1e-07 
    VSAT = 1.67e+05 
    A0 =  1.045 
    AGS =  0.589 
    A1 =      0 
    A2 =  0.598 
    AT = 0.001604 
    KETA = -0.05307 
    NSUB =  6e+16 
    NDEP = 3.181e+17 
    NSD =  1e+20 
    NGATE =  1e+21 
    GAMMA1 =      0 
    GAMMA2 =      0 
    VBX =      0 
    VBM =     -3 
    XT = 1.55e-07 
    K1 =  0.435 
    KT1 = -0.185 
    KT1L = -6e-10 
    KT2 =      0 
    K2 = -0.06627 
    K3 = -0.05758 
    K3B =      0 
    LPE0 = 4.737e-08 
    LPEB =      0 
    DVTP0 = 3.078e-07 
    DVTP1 =      0 
    W0 =  1e-09 
    DVT0 =   7.55 
    DVT1 = 0.5562 
    DVT2 = 0.04519 
    DVT0W =      0 
    DVT1W = 4.278e+05 
    DVT2W =  0.275 
    DROUT = 0.9416 
    DSUB = 0.3332 
    VTH0 = 0.4532 
    EU =   1.67 
    UA = 6.658e-11 
    UA1 =      0 
    UB = 1.717e-18 
    UB1 =      0 
    UC = 9.303e-11 
    UC1 =      0 
    U0 =    412 
    UTE = -0.9506 
    VOFF = -0.1544 
    VOFFL = -5.043e-09 
    MINV = -0.3827 
    FPROUT =  362.5 
    PDITS = 0.1388 
    PDITSD = 0.3964 
    PDITSL = 1.095e+06 
    DELTA = 0.01109 
    RDSW =    110 
    RDSWMIN =      0 
    RDWMIN =    180 
    RSWMIN =    180 
    RDW =    100 
    RSW =    100 
    PRWG =      0 
    PRWB =      0 
    PRT =      0 
    ETA0 = 0.0665 
    ETAB =      0 
    PCLM = 0.2847 
    PDIBLC1 =  1e-05 
    PDIBLC2 =  1e-05 
    PDIBLCB =      0 
    PSCBE1 =  5e+09 
    PSCBE2 =  5e-06 
    PVAG = 0.9788 
    WR =      1 
    DWG =      0 
    DWB =      0 
    XW = -5e-09 
    XWREF = -5e-09 
    XL = -3e-09 
    XLREF = -3e-09 
    B0 =      0 
    B1 =      0 
    ALPHA0 = 2.68e-12 
    ALPHA1 =      0 
    AGIDL = 4.532e-08 
    BGIDL = 2.958e+09 
    CGIDL =   0.67 
    PHIN = 0.1449 
    EGIDL =   0.01 
    AIGC = 0.01179 
    BIGC = 0.001851 
    CIGC = 0.02865 
    AIGSD = 0.009363 
    BIGSD = 0.001287 
    CIGSD = 0.05363 
    AIGBACC = 0.01246 
    BIGBACC = 0.002327 
    CIGBACC =      0 
    AIGBINV =  5.105 
    BIGBINV =   0.03 
    CIGBINV = 0.001819 
    NIGC =  2.774 
    NIGBINV =      3 
    NIGBACC =      4 
    NTOX =      1 
    EIGBINV = 0.002456 
    PIGCD =      1 
    POXEDGE =    1.3 
    XRCRG1 =     12 
    TNOIA =    1.5 
    TNOIB =    3.5 
    NTNOI =  1.554 
    XRCRG2 =      1 
    BETA0 =      2 
    IJTHDFWD = 0.001854 
    IJTHSFWD = 0.001854 
    IJTHDREV =    0.1 
    IJTHSREV =    0.1 
    XJBVD =      1 
    XJBVS =      1 
    BVD =     10 
    BVS =     10 
    VFB =     -1 
    GBMIN =  1e-12 
    RBDB =     50 
    RBPB =     50 
    RBSB =     50 
    RBPS =     50 
    RBPD =     50 
    CGSL = 1.64e-10 
    CGDL = 1.64e-10 
    CKAPPAS =    1.4 
    CKAPPAD =    1.4 
    CF =      0 
    CLC =      0 
    CLE =    0.6 
    DWC = -8e-09 
    DLC = 9.64e-09 
    DLCIG = 7.5e-09 
    DWJ =      0 
    VFBCV =     -1 
    ACDE = 0.3088 
    MOIN =  8.385 
    NOFF =  2.321 
    VOFFCV = -0.1546 
    DMCG =  1e-07 
    DMCI = 7.5e-08 
    DMDG =  1e-07 
    DMCGT =      0 
    XGW =      0 
    XGL =  5e-09 
    RSHG =     11 
    NGCON =      1 
    TCJ = 0.0008904 
    TPB = 0.001285 
    TCJSW = 0.001056 
    TPBSW = 0.0004388 
    TCJSWG = 0.0008402 
    TPBSWG = 0.001039 
    SK0 =      0 
    SK1 =      0 
    SK2 =      0 
    SL =  2e-06 
    SW =  2e-06 
    K =      0 
    LNFACTOR = 0.1398 
    LAGS =   -0.1 
    LLPE0 = 1.84e-09 
    LLPEB =  1e-35 
    LMINV = -0.00679 
    PVSAT =    130 
    PU0 =   0.05 
    TNOM =  298.1 
    CGSO = 8.2e-11 
    CGDO = 8.2e-11 
    CGBO =  1e-12 
    XPART =      0 
    RSH =     12 
    JSS = 5.603e-07 
    JSWS = 1.641e-13 
    JSWGS = 2.339e-13 
    PBS =      1 
    MJS =  0.613 
    PBSWS =    0.1 
    MJSWS = 0.09162 
    CJS = 0.00137 
    CJSWS = 6.266e-11 
    NJS =      1 
    PBSWGS =  1.118 
    MJSWGS = 0.9845 
    CJSWGS = 2.2e-10 
    XTIS =      3 
    JSD = 5.603e-07 
    JSWD = 1.641e-13 
    JSWGD = 2.339e-13 
    PBD =      1 
    MJD =  0.613 
    PBSWD =    0.1 
    MJSWD = 0.09162 
    CJD = 0.00137 
    CJSWD = 6.266e-11 
    NJD =      1 
    PBSWGD =  1.118 
    MJSWGD = 0.9845 
    CJSWGD = 2.2e-10 
    XTID =      3 
    LMLT =      1 
    WMLT =      1 
    LINT =      0 
    LL =      0 
    LLC =      0 
    LLN =      1 
    LW =      0 
    LWC =      0 
    LWN =      1 
    LWL =      0 
    LWLC =      0 
    LMIN =  6e-08 
    LMAX = 0.0001 
    WINT =      0 
    WL =      0 
    WLC =      0 
    WLN =      1 
    WW =      0 
    WWC =      0 
    WWN =      1 
    WWL =      0 
    WWLC =      0 
    WMIN = 1.2e-07 
    WMAX =      1 
    NOIA = 1.55e+42 
    NOIB = 2.11e+25 
    NOIC = 4.62e+07 
    EM = 4.1e+07 
    EF = 0.9178 
    AF =      1 
    KF = 1.2e-27 
    TRS =      0 
    TRD =      0 
    TEMPMOD  =      1 
    LAMBDA   =      0 
    VTL      =  2e+05 m/s
    LC       =  5e-09 
    XN       =      3 
    LLAMBDA  =      0 
    LVTL     =      0 
    LXN      =      0 
    WLAMBDA  =      0 
    WVTL     =      0 
    WXN      =      0 
    PLAMBDA  =      0 
    PVTL     =      0 
    PXN      =      0 
    RNOIA    =  0.577 
    RNOIB    = 0.5164 
    SAREF(SA0) = 4.5e-07 m
    SBREF(SB0) = 4.5e-07 m
    WLOD     =      0 m
    KU0      = -2.2e-09 1/m
    KVSAT    =      1 
    KVTH0    = 1.6e-09 m
    TKU0     =      0 
    LLODKU0  =      0 
    WLODKU0  =      0 
    LLODVTH  =      0 
    WLODVTH  =      0 
    LKU0     =      0 
    WKU0     =      0 
    PKU0     =      0 
    LKVTH0   =      0 
    WKVTH0   =      0 
    PKVTH0   =      0 
    STK2     =      0 
    LODK2    =      1 
    STETA0   =      0 
    LODETA0  =      1 
    LXRCRG1  =      0 
    WXRCRG1  =      0 
    PXRCRG1  =      0 
    LXRCRG2  =      0 
    WXRCRG2  =      0 
    PXRCRG2  =      0 
     *** UCB's BSIM4.4.0 new diode model is activated. ***
    *** UCB's Diode Model Parameters ***
    JTSS         =      0 
    JTSSWS       =      0 
    JTSSWGS      = 1.5e-09 
    JTSD         =      0 
    JTSSWD       =      0 
    JTSSWGD      = 1.5e-09 
    NJTS         =     20 
    NJTSSW       =     20 
    NJTSSWG      =     20 
    XTSS         =   0.02 
    XTSSWS       =   0.02 
    XTSSWGS      =   0.02 
    XTSD         =   0.02 
    XTSSWD       =   0.02 
    XTSSWGD      =   0.02 
    TNJTS        =      0 
    TNJTSSW      =      0 
    TNJTSSWG     =      0 
    VFBSDOFF     =      0 
    LVFBSDOFF    =      0 
    WVFBSDOFF    =      0 
    PVFBSDOFF    =      0 
    LINTNOI      = -3.68e-08 
    VTSS         =     10 
    VTSD         =     10 
    VTSSWS       =     10 
    VTSSWD       =     10 
    VTSSWGS      =     10 
    VTSSWGD      =     10 
    TTDIOMOD     =      1 
     *** UCB's BSIM4.5.0 new model is activated. ***
    UD         =      0 
    UD1        =      0 
    UP         =      0 
    LP         = 1.872e-08 
    TVOFF      =      0 
    TVFBSDOFF  =      0 
    RBPS0      =     50 
    RBPSL      =      0 
    RBPSW      =      0 
    RBPSNF     =      0 
    RBPD0      =     50 
    RBPDL      =      0 
    RBPDW      =      0 
    RBPDNF     =      0 
    RBPBX0     =    100 
    RBPBXL     =      0 
    RBPBXW     =      0 
    RBPBXNF    =      0 
    RBPBY0     =    100 
    RBPBYL     =      0 
    RBPBYW     =      0 
    RBPBYNF    =      0 
    RBSBX0     =    100 
    RBSBY0     =    100 
    RBDBX0     =    100 
    RBDBY0     =    100 
    RBSDBXL    =      0 
    RBSDBXW    =      0 
    RBSDBXNF   =      0 
    RBSDBYL    =      0 
    RBSDBYW    =      0 
    RBSDBYNF   =      0 
    LUD        =      0 
    LUD1       =      0 
    LUP        =      0 
    LLP        =      0 
    LTVOFF     =      0 
    LTVFBSDOFF =      0 
    WUD        =      0 
    WUD1       =      0 
    WUP        =      0 
    WLP        =      0 
    WTVOFF     =      0 
    WTVFBSDOFF =      0 
    PUD        =      0 
    PUD1       =      0 
    PUP        =      0 
    PLP        =      0 
    PTVOFF     =      0 
    PTVFBSDOFF =      0 
    WEB        =      0 
    WEC        =      0 
    KVTH0WE    =      0 
    K2WE       =      0 
    KU0WE      =      0 
    SCREF      =  1e-06 
    WPEMOD     =      0 
    LKVTH0WE   =      0 
    LK2WE      =      0 
    LKU0WE     =      0 
    WKVTH0WE   =      0 
    WK2WE      =      0 
    WKU0WE     =      0 
    PKVTH0WE   =      0 
    PK2WE      =      0 
    PKU0WE     =      0 
 Model file: /proj/cad/library/mosis/GF65_LPe/cmos10lpe_CDS_oa_dl064_11_20160415/models/YI-SM00030/Hspice/models/./nfet.inc
 Model line:          222
 Model Name: nfet  
 BSIM4 Model (Level 54)
    MOBMOD = 0
    BINUNIT = 1
    PARAMCHK = 0
    CAPMOD = 2
    DIOMOD = 1
    RDSMOD = 0
    TRNQSMOD = 0
    ACNQSMOD = 0
    RBODYMOD = 0
    RGATEMOD = 0
    PERMOD = 1
    GEOMOD = 0
    RGEOMOD = 0
    FNOIMOD = 1
    TNOIMOD = 0
    IGCMOD = 1
    IGBMOD = 1
    STIMOD = 1
    VBFWDMOD = 0
    VERSION =    4.5 
    TOXREF = 2.51e-09 
    TOXE = 2.6e-09 
    TOXP = 2.35e-09 
    TOXM = 2.51e-09 
    DTOX =      0 
    EPSROX =    3.9 
    CDSC =      0 
    CDSCB =      0 
    CDSCD =      0 
    CIT =      0 
    NFACTOR =  1.496 
    XJ =  1e-07 
    VSAT = 1.67e+05 
    A0 =  1.045 
    AGS =  0.589 
    A1 =      0 
    A2 =  0.598 
    AT = 0.001604 
    KETA = -0.05307 
    NSUB =  6e+16 
    NDEP = 3.181e+17 
    NSD =  1e+20 
    NGATE =  1e+21 
    GAMMA1 =      0 
    GAMMA2 =      0 
    VBX =      0 
    VBM =     -3 
    XT = 1.55e-07 
    K1 =  0.435 
    KT1 = -0.185 
    KT1L = -6e-10 
    KT2 =      0 
    K2 = -0.06627 
    K3 = -0.05758 
    K3B =      0 
    LPE0 = 4.737e-08 
    LPEB =      0 
    DVTP0 = 3.078e-07 
    DVTP1 =      0 
    W0 =  1e-09 
    DVT0 =   7.55 
    DVT1 = 0.5562 
    DVT2 = 0.04519 
    DVT0W =      0 
    DVT1W = 4.278e+05 
    DVT2W =  0.275 
    DROUT = 0.9416 
    DSUB = 0.3332 
    VTH0 = 0.4532 
    EU =   1.67 
    UA = 6.658e-11 
    UA1 =      0 
    UB = 1.717e-18 
    UB1 =      0 
    UC = 9.303e-11 
    UC1 =      0 
    U0 =    412 
    UTE = -0.9506 
    VOFF = -0.1544 
    VOFFL = -5.043e-09 
    MINV = -0.3827 
    FPROUT =  362.5 
    PDITS = 0.1388 
    PDITSD = 0.3964 
    PDITSL = 1.095e+06 
    DELTA = 0.01109 
    RDSW =    110 
    RDSWMIN =      0 
    RDWMIN =    180 
    RSWMIN =    180 
    RDW =    100 
    RSW =    100 
    PRWG =      0 
    PRWB =      0 
    PRT =      0 
    ETA0 = 0.0665 
    ETAB =      0 
    PCLM = 0.2847 
    PDIBLC1 =  1e-05 
    PDIBLC2 =  1e-05 
    PDIBLCB =      0 
    PSCBE1 =  5e+09 
    PSCBE2 =  5e-06 
    PVAG = 0.9788 
    WR =      1 
    DWG =      0 
    DWB =      0 
    XW = -5e-09 
    XWREF = -5e-09 
    XL = -3e-09 
    XLREF = -3e-09 
    B0 =      0 
    B1 =      0 
    ALPHA0 = 2.68e-12 
    ALPHA1 =      0 
    AGIDL = 4.532e-08 
    BGIDL = 2.958e+09 
    CGIDL =   0.67 
    PHIN = 0.1449 
    EGIDL =   0.01 
    AIGC = 0.01179 
    BIGC = 0.001851 
    CIGC = 0.02865 
    AIGSD = 0.009363 
    BIGSD = 0.001287 
    CIGSD = 0.05363 
    AIGBACC = 0.01246 
    BIGBACC = 0.002327 
    CIGBACC =      0 
    AIGBINV =  5.105 
    BIGBINV =   0.03 
    CIGBINV = 0.001819 
    NIGC =  2.774 
    NIGBINV =      3 
    NIGBACC =      4 
    NTOX =      1 
    EIGBINV = 0.002456 
    PIGCD =      1 
    POXEDGE =    1.3 
    XRCRG1 =     12 
    TNOIA =    1.5 
    TNOIB =    3.5 
    NTNOI =  1.554 
    XRCRG2 =      1 
    BETA0 =      2 
    IJTHDFWD = 0.001854 
    IJTHSFWD = 0.001854 
    IJTHDREV =    0.1 
    IJTHSREV =    0.1 
    XJBVD =      1 
    XJBVS =      1 
    BVD =     10 
    BVS =     10 
    VFB =     -1 
    GBMIN =  1e-12 
    RBDB =     50 
    RBPB =     50 
    RBSB =     50 
    RBPS =     50 
    RBPD =     50 
    CGSL = 1.64e-10 
    CGDL = 1.64e-10 
    CKAPPAS =    1.4 
    CKAPPAD =    1.4 
    CF =      0 
    CLC =      0 
    CLE =    0.6 
    DWC = -8e-09 
    DLC = 9.64e-09 
    DLCIG = 7.5e-09 
    DWJ =      0 
    VFBCV =     -1 
    ACDE = 0.3088 
    MOIN =  8.385 
    NOFF =  2.321 
    VOFFCV = -0.1546 
    DMCG =  1e-07 
    DMCI = 7.5e-08 
    DMDG =  1e-07 
    DMCGT =      0 
    XGW =      0 
    XGL =  5e-09 
    RSHG =     11 
    NGCON =      1 
    TCJ = 0.0008904 
    TPB = 0.001285 
    TCJSW = 0.001056 
    TPBSW = 0.0004388 
    TCJSWG = 0.0008402 
    TPBSWG = 0.001039 
    SK0 =      0 
    SK1 =      0 
    SK2 =      0 
    SL =  2e-06 
    SW =  2e-06 
    K =      0 
    LNFACTOR = 0.1398 
    LAGS =   -0.1 
    LLPE0 = 1.84e-09 
    LLPEB =  1e-35 
    LMINV = -0.00679 
    PVSAT =    130 
    PU0 =   0.05 
    TNOM =  298.1 
    CGSO = 8.2e-11 
    CGDO = 8.2e-11 
    CGBO =  1e-12 
    XPART =      0 
    RSH =     12 
    JSS = 5.603e-07 
    JSWS = 1.641e-13 
    JSWGS = 2.339e-13 
    PBS =      1 
    MJS =  0.613 
    PBSWS =    0.1 
    MJSWS = 0.09162 
    CJS = 0.00137 
    CJSWS = 6.266e-11 
    NJS =      1 
    PBSWGS =  1.118 
    MJSWGS = 0.9845 
    CJSWGS = 2.2e-10 
    XTIS =      3 
    JSD = 5.603e-07 
    JSWD = 1.641e-13 
    JSWGD = 2.339e-13 
    PBD =      1 
    MJD =  0.613 
    PBSWD =    0.1 
    MJSWD = 0.09162 
    CJD = 0.00137 
    CJSWD = 6.266e-11 
    NJD =      1 
    PBSWGD =  1.118 
    MJSWGD = 0.9845 
    CJSWGD = 2.2e-10 
    XTID =      3 
    LMLT =      1 
    WMLT =      1 
    LINT =      0 
    LL =      0 
    LLC =      0 
    LLN =      1 
    LW =      0 
    LWC =      0 
    LWN =      1 
    LWL =      0 
    LWLC =      0 
    LMIN =  6e-08 
    LMAX = 0.0001 
    WINT =      0 
    WL =      0 
    WLC =      0 
    WLN =      1 
    WW =      0 
    WWC =      0 
    WWN =      1 
    WWL =      0 
    WWLC =      0 
    WMIN = 1.2e-07 
    WMAX =      1 
    NOIA = 1.55e+42 
    NOIB = 2.11e+25 
    NOIC = 4.62e+07 
    EM = 4.1e+07 
    EF = 0.9178 
    AF =      1 
    KF = 1.2e-27 
    TRS =      0 
    TRD =      0 
    TEMPMOD  =      1 
    LAMBDA   =      0 
    VTL      =  2e+05 m/s
    LC       =  5e-09 
    XN       =      3 
    LLAMBDA  =      0 
    LVTL     =      0 
    LXN      =      0 
    WLAMBDA  =      0 
    WVTL     =      0 
    WXN      =      0 
    PLAMBDA  =      0 
    PVTL     =      0 
    PXN      =      0 
    RNOIA    =  0.577 
    RNOIB    = 0.5164 
    SAREF(SA0) = 4.5e-07 m
    SBREF(SB0) = 4.5e-07 m
    WLOD     =      0 m
    KU0      = -2.2e-09 1/m
    KVSAT    =      1 
    KVTH0    = 1.6e-09 m
    TKU0     =      0 
    LLODKU0  =      0 
    WLODKU0  =      0 
    LLODVTH  =      0 
    WLODVTH  =      0 
    LKU0     =      0 
    WKU0     =      0 
    PKU0     =      0 
    LKVTH0   =      0 
    WKVTH0   =      0 
    PKVTH0   =      0 
    STK2     =      0 
    LODK2    =      1 
    STETA0   =      0 
    LODETA0  =      1 
    LXRCRG1  =      0 
    WXRCRG1  =      0 
    PXRCRG1  =      0 
    LXRCRG2  =      0 
    WXRCRG2  =      0 
    PXRCRG2  =      0 
     *** UCB's BSIM4.4.0 new diode model is activated. ***
    *** UCB's Diode Model Parameters ***
    JTSS         =      0 
    JTSSWS       =      0 
    JTSSWGS      = 1.5e-09 
    JTSD         =      0 
    JTSSWD       =      0 
    JTSSWGD      = 1.5e-09 
    NJTS         =     20 
    NJTSSW       =     20 
    NJTSSWG      =     20 
    XTSS         =   0.02 
    XTSSWS       =   0.02 
    XTSSWGS      =   0.02 
    XTSD         =   0.02 
    XTSSWD       =   0.02 
    XTSSWGD      =   0.02 
    TNJTS        =      0 
    TNJTSSW      =      0 
    TNJTSSWG     =      0 
    VFBSDOFF     =      0 
    LVFBSDOFF    =      0 
    WVFBSDOFF    =      0 
    PVFBSDOFF    =      0 
    LINTNOI      = -3.68e-08 
    VTSS         =     10 
    VTSD         =     10 
    VTSSWS       =     10 
    VTSSWD       =     10 
    VTSSWGS      =     10 
    VTSSWGD      =     10 
    TTDIOMOD     =      1 
     *** UCB's BSIM4.5.0 new model is activated. ***
    UD         =      0 
    UD1        =      0 
    UP         =      0 
    LP         = 1.872e-08 
    TVOFF      =      0 
    TVFBSDOFF  =      0 
    RBPS0      =     50 
    RBPSL      =      0 
    RBPSW      =      0 
    RBPSNF     =      0 
    RBPD0      =     50 
    RBPDL      =      0 
    RBPDW      =      0 
    RBPDNF     =      0 
    RBPBX0     =    100 
    RBPBXL     =      0 
    RBPBXW     =      0 
    RBPBXNF    =      0 
    RBPBY0     =    100 
    RBPBYL     =      0 
    RBPBYW     =      0 
    RBPBYNF    =      0 
    RBSBX0     =    100 
    RBSBY0     =    100 
    RBDBX0     =    100 
    RBDBY0     =    100 
    RBSDBXL    =      0 
    RBSDBXW    =      0 
    RBSDBXNF   =      0 
    RBSDBYL    =      0 
    RBSDBYW    =      0 
    RBSDBYNF   =      0 
    LUD        =      0 
    LUD1       =      0 
    LUP        =      0 
    LLP        =      0 
    LTVOFF     =      0 
    LTVFBSDOFF =      0 
    WUD        =      0 
    WUD1       =      0 
    WUP        =      0 
    WLP        =      0 
    WTVOFF     =      0 
    WTVFBSDOFF =      0 
    PUD        =      0 
    PUD1       =      0 
    PUP        =      0 
    PLP        =      0 
    PTVOFF     =      0 
    PTVFBSDOFF =      0 
    WEB        =      0 
    WEC        =      0 
    KVTH0WE    =      0 
    K2WE       =      0 
    KU0WE      =      0 
    SCREF      =  1e-06 
    WPEMOD     =      0 
    LKVTH0WE   =      0 
    LK2WE      =      0 
    LKU0WE     =      0 
    WKVTH0WE   =      0 
    WK2WE      =      0 
    WKU0WE     =      0 
    PKVTH0WE   =      0 
    PK2WE      =      0 
    PKU0WE     =      0 
 Model file: /proj/cad/library/mosis/GF65_LPe/cmos10lpe_CDS_oa_dl064_11_20160415/models/YI-SM00030/Hspice/models/./nfet.inc
 Model line:          222
 Model Name: nfet  
 BSIM4 Model (Level 54)
    MOBMOD = 0
    BINUNIT = 1
    PARAMCHK = 0
    CAPMOD = 2
    DIOMOD = 1
    RDSMOD = 0
    TRNQSMOD = 0
    ACNQSMOD = 0
    RBODYMOD = 0
    RGATEMOD = 0
    PERMOD = 1
    GEOMOD = 0
    RGEOMOD = 0
    FNOIMOD = 1
    TNOIMOD = 0
    IGCMOD = 1
    IGBMOD = 1
    STIMOD = 1
    VBFWDMOD = 0
    VERSION =    4.5 
    TOXREF = 2.51e-09 
    TOXE = 2.6e-09 
    TOXP = 2.35e-09 
    TOXM = 2.51e-09 
    DTOX =      0 
    EPSROX =    3.9 
    CDSC =      0 
    CDSCB =      0 
    CDSCD =      0 
    CIT =      0 
    NFACTOR =  1.496 
    XJ =  1e-07 
    VSAT = 1.67e+05 
    A0 =  1.045 
    AGS =  0.589 
    A1 =      0 
    A2 =  0.598 
    AT = 0.001604 
    KETA = -0.05307 
    NSUB =  6e+16 
    NDEP = 3.181e+17 
    NSD =  1e+20 
    NGATE =  1e+21 
    GAMMA1 =      0 
    GAMMA2 =      0 
    VBX =      0 
    VBM =     -3 
    XT = 1.55e-07 
    K1 =  0.435 
    KT1 = -0.185 
    KT1L = -6e-10 
    KT2 =      0 
    K2 = -0.06627 
    K3 = -0.05758 
    K3B =      0 
    LPE0 = 4.737e-08 
    LPEB =      0 
    DVTP0 = 3.078e-07 
    DVTP1 =      0 
    W0 =  1e-09 
    DVT0 =   7.55 
    DVT1 = 0.5562 
    DVT2 = 0.04519 
    DVT0W =      0 
    DVT1W = 4.278e+05 
    DVT2W =  0.275 
    DROUT = 0.9416 
    DSUB = 0.3332 
    VTH0 = 0.4532 
    EU =   1.67 
    UA = 6.658e-11 
    UA1 =      0 
    UB = 1.717e-18 
    UB1 =      0 
    UC = 9.303e-11 
    UC1 =      0 
    U0 =    412 
    UTE = -0.9506 
    VOFF = -0.1544 
    VOFFL = -5.043e-09 
    MINV = -0.3827 
    FPROUT =  362.5 
    PDITS = 0.1388 
    PDITSD = 0.3964 
    PDITSL = 1.095e+06 
    DELTA = 0.01109 
    RDSW =    110 
    RDSWMIN =      0 
    RDWMIN =    180 
    RSWMIN =    180 
    RDW =    100 
    RSW =    100 
    PRWG =      0 
    PRWB =      0 
    PRT =      0 
    ETA0 = 0.0665 
    ETAB =      0 
    PCLM = 0.2847 
    PDIBLC1 =  1e-05 
    PDIBLC2 =  1e-05 
    PDIBLCB =      0 
    PSCBE1 =  5e+09 
    PSCBE2 =  5e-06 
    PVAG = 0.9788 
    WR =      1 
    DWG =      0 
    DWB =      0 
    XW = -5e-09 
    XWREF = -5e-09 
    XL = -3e-09 
    XLREF = -3e-09 
    B0 =      0 
    B1 =      0 
    ALPHA0 = 2.68e-12 
    ALPHA1 =      0 
    AGIDL = 4.532e-08 
    BGIDL = 2.958e+09 
    CGIDL =   0.67 
    PHIN = 0.1449 
    EGIDL =   0.01 
    AIGC = 0.01179 
    BIGC = 0.001851 
    CIGC = 0.02865 
    AIGSD = 0.009363 
    BIGSD = 0.001287 
    CIGSD = 0.05363 
    AIGBACC = 0.01246 
    BIGBACC = 0.002327 
    CIGBACC =      0 
    AIGBINV =  5.105 
    BIGBINV =   0.03 
    CIGBINV = 0.001819 
    NIGC =  2.774 
    NIGBINV =      3 
    NIGBACC =      4 
    NTOX =      1 
    EIGBINV = 0.002456 
    PIGCD =      1 
    POXEDGE =    1.3 
    XRCRG1 =     12 
    TNOIA =    1.5 
    TNOIB =    3.5 
    NTNOI =  1.554 
    XRCRG2 =      1 
    BETA0 =      2 
    IJTHDFWD = 0.001854 
    IJTHSFWD = 0.001854 
    IJTHDREV =    0.1 
    IJTHSREV =    0.1 
    XJBVD =      1 
    XJBVS =      1 
    BVD =     10 
    BVS =     10 
    VFB =     -1 
    GBMIN =  1e-12 
    RBDB =     50 
    RBPB =     50 
    RBSB =     50 
    RBPS =     50 
    RBPD =     50 
    CGSL = 1.64e-10 
    CGDL = 1.64e-10 
    CKAPPAS =    1.4 
    CKAPPAD =    1.4 
    CF =      0 
    CLC =      0 
    CLE =    0.6 
    DWC = -8e-09 
    DLC = 9.64e-09 
    DLCIG = 7.5e-09 
    DWJ =      0 
    VFBCV =     -1 
    ACDE = 0.3088 
    MOIN =  8.385 
    NOFF =  2.321 
    VOFFCV = -0.1546 
    DMCG =  1e-07 
    DMCI = 7.5e-08 
    DMDG =  1e-07 
    DMCGT =      0 
    XGW =      0 
    XGL =  5e-09 
    RSHG =     11 
    NGCON =      1 
    TCJ = 0.0008904 
    TPB = 0.001285 
    TCJSW = 0.001056 
    TPBSW = 0.0004388 
    TCJSWG = 0.0008402 
    TPBSWG = 0.001039 
    SK0 =      0 
    SK1 =      0 
    SK2 =      0 
    SL =  2e-06 
    SW =  2e-06 
    K =      0 
    LNFACTOR = 0.1398 
    LAGS =   -0.1 
    LLPE0 = 1.84e-09 
    LLPEB =  1e-35 
    LMINV = -0.00679 
    PVSAT =    130 
    PU0 =   0.05 
    TNOM =  298.1 
    CGSO = 8.2e-11 
    CGDO = 8.2e-11 
    CGBO =  1e-12 
    XPART =      0 
    RSH =     12 
    JSS = 5.603e-07 
    JSWS = 1.641e-13 
    JSWGS = 2.339e-13 
    PBS =      1 
    MJS =  0.613 
    PBSWS =    0.1 
    MJSWS = 0.09162 
    CJS = 0.00137 
    CJSWS = 6.266e-11 
    NJS =      1 
    PBSWGS =  1.118 
    MJSWGS = 0.9845 
    CJSWGS = 2.2e-10 
    XTIS =      3 
    JSD = 5.603e-07 
    JSWD = 1.641e-13 
    JSWGD = 2.339e-13 
    PBD =      1 
    MJD =  0.613 
    PBSWD =    0.1 
    MJSWD = 0.09162 
    CJD = 0.00137 
    CJSWD = 6.266e-11 
    NJD =      1 
    PBSWGD =  1.118 
    MJSWGD = 0.9845 
    CJSWGD = 2.2e-10 
    XTID =      3 
    LMLT =      1 
    WMLT =      1 
    LINT =      0 
    LL =      0 
    LLC =      0 
    LLN =      1 
    LW =      0 
    LWC =      0 
    LWN =      1 
    LWL =      0 
    LWLC =      0 
    LMIN =  6e-08 
    LMAX = 0.0001 
    WINT =      0 
    WL =      0 
    WLC =      0 
    WLN =      1 
    WW =      0 
    WWC =      0 
    WWN =      1 
    WWL =      0 
    WWLC =      0 
    WMIN = 1.2e-07 
    WMAX =      1 
    NOIA = 1.55e+42 
    NOIB = 2.11e+25 
    NOIC = 4.62e+07 
    EM = 4.1e+07 
    EF = 0.9178 
    AF =      1 
    KF = 1.2e-27 
    TRS =      0 
    TRD =      0 
    TEMPMOD  =      1 
    LAMBDA   =      0 
    VTL      =  2e+05 m/s
    LC       =  5e-09 
    XN       =      3 
    LLAMBDA  =      0 
    LVTL     =      0 
    LXN      =      0 
    WLAMBDA  =      0 
    WVTL     =      0 
    WXN      =      0 
    PLAMBDA  =      0 
    PVTL     =      0 
    PXN      =      0 
    RNOIA    =  0.577 
    RNOIB    = 0.5164 
    SAREF(SA0) = 4.5e-07 m
    SBREF(SB0) = 4.5e-07 m
    WLOD     =      0 m
    KU0      = -2.2e-09 1/m
    KVSAT    =      1 
    KVTH0    = 1.6e-09 m
    TKU0     =      0 
    LLODKU0  =      0 
    WLODKU0  =      0 
    LLODVTH  =      0 
    WLODVTH  =      0 
    LKU0     =      0 
    WKU0     =      0 
    PKU0     =      0 
    LKVTH0   =      0 
    WKVTH0   =      0 
    PKVTH0   =      0 
    STK2     =      0 
    LODK2    =      1 
    STETA0   =      0 
    LODETA0  =      1 
    LXRCRG1  =      0 
    WXRCRG1  =      0 
    PXRCRG1  =      0 
    LXRCRG2  =      0 
    WXRCRG2  =      0 
    PXRCRG2  =      0 
     *** UCB's BSIM4.4.0 new diode model is activated. ***
    *** UCB's Diode Model Parameters ***
    JTSS         =      0 
    JTSSWS       =      0 
    JTSSWGS      = 1.5e-09 
    JTSD         =      0 
    JTSSWD       =      0 
    JTSSWGD      = 1.5e-09 
    NJTS         =     20 
    NJTSSW       =     20 
    NJTSSWG      =     20 
    XTSS         =   0.02 
    XTSSWS       =   0.02 
    XTSSWGS      =   0.02 
    XTSD         =   0.02 
    XTSSWD       =   0.02 
    XTSSWGD      =   0.02 
    TNJTS        =      0 
    TNJTSSW      =      0 
    TNJTSSWG     =      0 
    VFBSDOFF     =      0 
    LVFBSDOFF    =      0 
    WVFBSDOFF    =      0 
    PVFBSDOFF    =      0 
    LINTNOI      = -3.68e-08 
    VTSS         =     10 
    VTSD         =     10 
    VTSSWS       =     10 
    VTSSWD       =     10 
    VTSSWGS      =     10 
    VTSSWGD      =     10 
    TTDIOMOD     =      1 
     *** UCB's BSIM4.5.0 new model is activated. ***
    UD         =      0 
    UD1        =      0 
    UP         =      0 
    LP         = 1.872e-08 
    TVOFF      =      0 
    TVFBSDOFF  =      0 
    RBPS0      =     50 
    RBPSL      =      0 
    RBPSW      =      0 
    RBPSNF     =      0 
    RBPD0      =     50 
    RBPDL      =      0 
    RBPDW      =      0 
    RBPDNF     =      0 
    RBPBX0     =    100 
    RBPBXL     =      0 
    RBPBXW     =      0 
    RBPBXNF    =      0 
    RBPBY0     =    100 
    RBPBYL     =      0 
    RBPBYW     =      0 
    RBPBYNF    =      0 
    RBSBX0     =    100 
    RBSBY0     =    100 
    RBDBX0     =    100 
    RBDBY0     =    100 
    RBSDBXL    =      0 
    RBSDBXW    =      0 
    RBSDBXNF   =      0 
    RBSDBYL    =      0 
    RBSDBYW    =      0 
    RBSDBYNF   =      0 
    LUD        =      0 
    LUD1       =      0 
    LUP        =      0 
    LLP        =      0 
    LTVOFF     =      0 
    LTVFBSDOFF =      0 
    WUD        =      0 
    WUD1       =      0 
    WUP        =      0 
    WLP        =      0 
    WTVOFF     =      0 
    WTVFBSDOFF =      0 
    PUD        =      0 
    PUD1       =      0 
    PUP        =      0 
    PLP        =      0 
    PTVOFF     =      0 
    PTVFBSDOFF =      0 
    WEB        =      0 
    WEC        =      0 
    KVTH0WE    =      0 
    K2WE       =      0 
    KU0WE      =      0 
    SCREF      =  1e-06 
    WPEMOD     =      0 
    LKVTH0WE   =      0 
    LK2WE      =      0 
    LKU0WE     =      0 
    WKVTH0WE   =      0 
    WK2WE      =      0 
    WKU0WE     =      0 
    PKVTH0WE   =      0 
    PK2WE      =      0 
    PKU0WE     =      0 
 Model file: /proj/cad/library/mosis/GF65_LPe/cmos10lpe_CDS_oa_dl064_11_20160415/models/YI-SM00030/Hspice/models/./nfet.inc
 Model line:          222
 Model Name: nfet  
 BSIM4 Model (Level 54)
    MOBMOD = 0
    BINUNIT = 1
    PARAMCHK = 0
    CAPMOD = 2
    DIOMOD = 1
    RDSMOD = 0
    TRNQSMOD = 0
    ACNQSMOD = 0
    RBODYMOD = 0
    RGATEMOD = 0
    PERMOD = 1
    GEOMOD = 0
    RGEOMOD = 0
    FNOIMOD = 1
    TNOIMOD = 0
    IGCMOD = 1
    IGBMOD = 1
    STIMOD = 1
    VBFWDMOD = 0
    VERSION =    4.5 
    TOXREF = 2.51e-09 
    TOXE = 2.6e-09 
    TOXP = 2.35e-09 
    TOXM = 2.51e-09 
    DTOX =      0 
    EPSROX =    3.9 
    CDSC =      0 
    CDSCB =      0 
    CDSCD =      0 
    CIT =      0 
    NFACTOR =  1.496 
    XJ =  1e-07 
    VSAT = 1.67e+05 
    A0 =  1.045 
    AGS =  0.589 
    A1 =      0 
    A2 =  0.598 
    AT = 0.001604 
    KETA = -0.05307 
    NSUB =  6e+16 
    NDEP = 3.181e+17 
    NSD =  1e+20 
    NGATE =  1e+21 
    GAMMA1 =      0 
    GAMMA2 =      0 
    VBX =      0 
    VBM =     -3 
    XT = 1.55e-07 
    K1 =  0.435 
    KT1 = -0.185 
    KT1L = -6e-10 
    KT2 =      0 
    K2 = -0.06627 
    K3 = -0.05758 
    K3B =      0 
    LPE0 = 4.737e-08 
    LPEB =      0 
    DVTP0 = 3.078e-07 
    DVTP1 =      0 
    W0 =  1e-09 
    DVT0 =   7.55 
    DVT1 = 0.5562 
    DVT2 = 0.04519 
    DVT0W =      0 
    DVT1W = 4.278e+05 
    DVT2W =  0.275 
    DROUT = 0.9416 
    DSUB = 0.3332 
    VTH0 = 0.4532 
    EU =   1.67 
    UA = 6.658e-11 
    UA1 =      0 
    UB = 1.717e-18 
    UB1 =      0 
    UC = 9.303e-11 
    UC1 =      0 
    U0 =    412 
    UTE = -0.9506 
    VOFF = -0.1544 
    VOFFL = -5.043e-09 
    MINV = -0.3827 
    FPROUT =  362.5 
    PDITS = 0.1388 
    PDITSD = 0.3964 
    PDITSL = 1.095e+06 
    DELTA = 0.01109 
    RDSW =    110 
    RDSWMIN =      0 
    RDWMIN =    180 
    RSWMIN =    180 
    RDW =    100 
    RSW =    100 
    PRWG =      0 
    PRWB =      0 
    PRT =      0 
    ETA0 = 0.0665 
    ETAB =      0 
    PCLM = 0.2847 
    PDIBLC1 =  1e-05 
    PDIBLC2 =  1e-05 
    PDIBLCB =      0 
    PSCBE1 =  5e+09 
    PSCBE2 =  5e-06 
    PVAG = 0.9788 
    WR =      1 
    DWG =      0 
    DWB =      0 
    XW = -5e-09 
    XWREF = -5e-09 
    XL = -3e-09 
    XLREF = -3e-09 
    B0 =      0 
    B1 =      0 
    ALPHA0 = 2.68e-12 
    ALPHA1 =      0 
    AGIDL = 4.532e-08 
    BGIDL = 2.958e+09 
    CGIDL =   0.67 
    PHIN = 0.1449 
    EGIDL =   0.01 
    AIGC = 0.01179 
    BIGC = 0.001851 
    CIGC = 0.02865 
    AIGSD = 0.009363 
    BIGSD = 0.001287 
    CIGSD = 0.05363 
    AIGBACC = 0.01246 
    BIGBACC = 0.002327 
    CIGBACC =      0 
    AIGBINV =  5.105 
    BIGBINV =   0.03 
    CIGBINV = 0.001819 
    NIGC =  2.774 
    NIGBINV =      3 
    NIGBACC =      4 
    NTOX =      1 
    EIGBINV = 0.002456 
    PIGCD =      1 
    POXEDGE =    1.3 
    XRCRG1 =     12 
    TNOIA =    1.5 
    TNOIB =    3.5 
    NTNOI =  1.554 
    XRCRG2 =      1 
    BETA0 =      2 
    IJTHDFWD = 0.001854 
    IJTHSFWD = 0.001854 
    IJTHDREV =    0.1 
    IJTHSREV =    0.1 
    XJBVD =      1 
    XJBVS =      1 
    BVD =     10 
    BVS =     10 
    VFB =     -1 
    GBMIN =  1e-12 
    RBDB =     50 
    RBPB =     50 
    RBSB =     50 
    RBPS =     50 
    RBPD =     50 
    CGSL = 1.64e-10 
    CGDL = 1.64e-10 
    CKAPPAS =    1.4 
    CKAPPAD =    1.4 
    CF =      0 
    CLC =      0 
    CLE =    0.6 
    DWC = -8e-09 
    DLC = 9.64e-09 
    DLCIG = 7.5e-09 
    DWJ =      0 
    VFBCV =     -1 
    ACDE = 0.3088 
    MOIN =  8.385 
    NOFF =  2.321 
    VOFFCV = -0.1546 
    DMCG =  1e-07 
    DMCI = 7.5e-08 
    DMDG =  1e-07 
    DMCGT =      0 
    XGW =      0 
    XGL =  5e-09 
    RSHG =     11 
    NGCON =      1 
    TCJ = 0.0008904 
    TPB = 0.001285 
    TCJSW = 0.001056 
    TPBSW = 0.0004388 
    TCJSWG = 0.0008402 
    TPBSWG = 0.001039 
    SK0 =      0 
    SK1 =      0 
    SK2 =      0 
    SL =  2e-06 
    SW =  2e-06 
    K =      0 
    LNFACTOR = 0.1398 
    LAGS =   -0.1 
    LLPE0 = 1.84e-09 
    LLPEB =  1e-35 
    LMINV = -0.00679 
    PVSAT =    130 
    PU0 =   0.05 
    TNOM =  298.1 
    CGSO = 8.2e-11 
    CGDO = 8.2e-11 
    CGBO =  1e-12 
    XPART =      0 
    RSH =     12 
    JSS = 5.603e-07 
    JSWS = 1.641e-13 
    JSWGS = 2.339e-13 
    PBS =      1 
    MJS =  0.613 
    PBSWS =    0.1 
    MJSWS = 0.09162 
    CJS = 0.00137 
    CJSWS = 6.266e-11 
    NJS =      1 
    PBSWGS =  1.118 
    MJSWGS = 0.9845 
    CJSWGS = 2.2e-10 
    XTIS =      3 
    JSD = 5.603e-07 
    JSWD = 1.641e-13 
    JSWGD = 2.339e-13 
    PBD =      1 
    MJD =  0.613 
    PBSWD =    0.1 
    MJSWD = 0.09162 
    CJD = 0.00137 
    CJSWD = 6.266e-11 
    NJD =      1 
    PBSWGD =  1.118 
    MJSWGD = 0.9845 
    CJSWGD = 2.2e-10 
    XTID =      3 
    LMLT =      1 
    WMLT =      1 
    LINT =      0 
    LL =      0 
    LLC =      0 
    LLN =      1 
    LW =      0 
    LWC =      0 
    LWN =      1 
    LWL =      0 
    LWLC =      0 
    LMIN =  6e-08 
    LMAX = 0.0001 
    WINT =      0 
    WL =      0 
    WLC =      0 
    WLN =      1 
    WW =      0 
    WWC =      0 
    WWN =      1 
    WWL =      0 
    WWLC =      0 
    WMIN = 1.2e-07 
    WMAX =      1 
    NOIA = 1.55e+42 
    NOIB = 2.11e+25 
    NOIC = 4.62e+07 
    EM = 4.1e+07 
    EF = 0.9178 
    AF =      1 
    KF = 1.2e-27 
    TRS =      0 
    TRD =      0 
    TEMPMOD  =      1 
    LAMBDA   =      0 
    VTL      =  2e+05 m/s
    LC       =  5e-09 
    XN       =      3 
    LLAMBDA  =      0 
    LVTL     =      0 
    LXN      =      0 
    WLAMBDA  =      0 
    WVTL     =      0 
    WXN      =      0 
    PLAMBDA  =      0 
    PVTL     =      0 
    PXN      =      0 
    RNOIA    =  0.577 
    RNOIB    = 0.5164 
    SAREF(SA0) = 4.5e-07 m
    SBREF(SB0) = 4.5e-07 m
    WLOD     =      0 m
    KU0      = -2.2e-09 1/m
    KVSAT    =      1 
    KVTH0    = 1.6e-09 m
    TKU0     =      0 
    LLODKU0  =      0 
    WLODKU0  =      0 
    LLODVTH  =      0 
    WLODVTH  =      0 
    LKU0     =      0 
    WKU0     =      0 
    PKU0     =      0 
    LKVTH0   =      0 
    WKVTH0   =      0 
    PKVTH0   =      0 
    STK2     =      0 
    LODK2    =      1 
    STETA0   =      0 
    LODETA0  =      1 
    LXRCRG1  =      0 
    WXRCRG1  =      0 
    PXRCRG1  =      0 
    LXRCRG2  =      0 
    WXRCRG2  =      0 
    PXRCRG2  =      0 
     *** UCB's BSIM4.4.0 new diode model is activated. ***
    *** UCB's Diode Model Parameters ***
    JTSS         =      0 
    JTSSWS       =      0 
    JTSSWGS      = 1.5e-09 
    JTSD         =      0 
    JTSSWD       =      0 
    JTSSWGD      = 1.5e-09 
    NJTS         =     20 
    NJTSSW       =     20 
    NJTSSWG      =     20 
    XTSS         =   0.02 
    XTSSWS       =   0.02 
    XTSSWGS      =   0.02 
    XTSD         =   0.02 
    XTSSWD       =   0.02 
    XTSSWGD      =   0.02 
    TNJTS        =      0 
    TNJTSSW      =      0 
    TNJTSSWG     =      0 
    VFBSDOFF     =      0 
    LVFBSDOFF    =      0 
    WVFBSDOFF    =      0 
    PVFBSDOFF    =      0 
    LINTNOI      = -3.68e-08 
    VTSS         =     10 
    VTSD         =     10 
    VTSSWS       =     10 
    VTSSWD       =     10 
    VTSSWGS      =     10 
    VTSSWGD      =     10 
    TTDIOMOD     =      1 
     *** UCB's BSIM4.5.0 new model is activated. ***
    UD         =      0 
    UD1        =      0 
    UP         =      0 
    LP         = 1.872e-08 
    TVOFF      =      0 
    TVFBSDOFF  =      0 
    RBPS0      =     50 
    RBPSL      =      0 
    RBPSW      =      0 
    RBPSNF     =      0 
    RBPD0      =     50 
    RBPDL      =      0 
    RBPDW      =      0 
    RBPDNF     =      0 
    RBPBX0     =    100 
    RBPBXL     =      0 
    RBPBXW     =      0 
    RBPBXNF    =      0 
    RBPBY0     =    100 
    RBPBYL     =      0 
    RBPBYW     =      0 
    RBPBYNF    =      0 
    RBSBX0     =    100 
    RBSBY0     =    100 
    RBDBX0     =    100 
    RBDBY0     =    100 
    RBSDBXL    =      0 
    RBSDBXW    =      0 
    RBSDBXNF   =      0 
    RBSDBYL    =      0 
    RBSDBYW    =      0 
    RBSDBYNF   =      0 
    LUD        =      0 
    LUD1       =      0 
    LUP        =      0 
    LLP        =      0 
    LTVOFF     =      0 
    LTVFBSDOFF =      0 
    WUD        =      0 
    WUD1       =      0 
    WUP        =      0 
    WLP        =      0 
    WTVOFF     =      0 
    WTVFBSDOFF =      0 
    PUD        =      0 
    PUD1       =      0 
    PUP        =      0 
    PLP        =      0 
    PTVOFF     =      0 
    PTVFBSDOFF =      0 
    WEB        =      0 
    WEC        =      0 
    KVTH0WE    =      0 
    K2WE       =      0 
    KU0WE      =      0 
    SCREF      =  1e-06 
    WPEMOD     =      0 
    LKVTH0WE   =      0 
    LK2WE      =      0 
    LKU0WE     =      0 
    WKVTH0WE   =      0 
    WK2WE      =      0 
    WKU0WE     =      0 
    PKVTH0WE   =      0 
    PK2WE      =      0 
    PKU0WE     =      0 
 Model file: /proj/cad/library/mosis/GF65_LPe/cmos10lpe_CDS_oa_dl064_11_20160415/models/YI-SM00030/Hspice/models/./nfet.inc
 Model line:          222
 Model Name: nfet  
 BSIM4 Model (Level 54)
    MOBMOD = 0
    BINUNIT = 1
    PARAMCHK = 0
    CAPMOD = 2
    DIOMOD = 1
    RDSMOD = 0
    TRNQSMOD = 0
    ACNQSMOD = 0
    RBODYMOD = 0
    RGATEMOD = 0
    PERMOD = 1
    GEOMOD = 0
    RGEOMOD = 0
    FNOIMOD = 1
    TNOIMOD = 0
    IGCMOD = 1
    IGBMOD = 1
    STIMOD = 1
    VBFWDMOD = 0
    VERSION =    4.5 
    TOXREF = 2.51e-09 
    TOXE = 2.6e-09 
    TOXP = 2.35e-09 
    TOXM = 2.51e-09 
    DTOX =      0 
    EPSROX =    3.9 
    CDSC =      0 
    CDSCB =      0 
    CDSCD =      0 
    CIT =      0 
    NFACTOR =  1.496 
    XJ =  1e-07 
    VSAT = 1.67e+05 
    A0 =  1.045 
    AGS =  0.589 
    A1 =      0 
    A2 =  0.598 
    AT = 0.001604 
    KETA = -0.05307 
    NSUB =  6e+16 
    NDEP = 3.181e+17 
    NSD =  1e+20 
    NGATE =  1e+21 
    GAMMA1 =      0 
    GAMMA2 =      0 
    VBX =      0 
    VBM =     -3 
    XT = 1.55e-07 
    K1 =  0.435 
    KT1 = -0.185 
    KT1L = -6e-10 
    KT2 =      0 
    K2 = -0.06627 
    K3 = -0.05758 
    K3B =      0 
    LPE0 = 4.737e-08 
    LPEB =      0 
    DVTP0 = 3.078e-07 
    DVTP1 =      0 
    W0 =  1e-09 
    DVT0 =   7.55 
    DVT1 = 0.5562 
    DVT2 = 0.04519 
    DVT0W =      0 
    DVT1W = 4.278e+05 
    DVT2W =  0.275 
    DROUT = 0.9416 
    DSUB = 0.3332 
    VTH0 = 0.4532 
    EU =   1.67 
    UA = 6.658e-11 
    UA1 =      0 
    UB = 1.717e-18 
    UB1 =      0 
    UC = 9.303e-11 
    UC1 =      0 
    U0 =    412 
    UTE = -0.9506 
    VOFF = -0.1544 
    VOFFL = -5.043e-09 
    MINV = -0.3827 
    FPROUT =  362.5 
    PDITS = 0.1388 
    PDITSD = 0.3964 
    PDITSL = 1.095e+06 
    DELTA = 0.01109 
    RDSW =    110 
    RDSWMIN =      0 
    RDWMIN =    180 
    RSWMIN =    180 
    RDW =    100 
    RSW =    100 
    PRWG =      0 
    PRWB =      0 
    PRT =      0 
    ETA0 = 0.0665 
    ETAB =      0 
    PCLM = 0.2847 
    PDIBLC1 =  1e-05 
    PDIBLC2 =  1e-05 
    PDIBLCB =      0 
    PSCBE1 =  5e+09 
    PSCBE2 =  5e-06 
    PVAG = 0.9788 
    WR =      1 
    DWG =      0 
    DWB =      0 
    XW = -5e-09 
    XWREF = -5e-09 
    XL = -3e-09 
    XLREF = -3e-09 
    B0 =      0 
    B1 =      0 
    ALPHA0 = 2.68e-12 
    ALPHA1 =      0 
    AGIDL = 4.532e-08 
    BGIDL = 2.958e+09 
    CGIDL =   0.67 
    PHIN = 0.1449 
    EGIDL =   0.01 
    AIGC = 0.01179 
    BIGC = 0.001851 
    CIGC = 0.02865 
    AIGSD = 0.009363 
    BIGSD = 0.001287 
    CIGSD = 0.05363 
    AIGBACC = 0.01246 
    BIGBACC = 0.002327 
    CIGBACC =      0 
    AIGBINV =  5.105 
    BIGBINV =   0.03 
    CIGBINV = 0.001819 
    NIGC =  2.774 
    NIGBINV =      3 
    NIGBACC =      4 
    NTOX =      1 
    EIGBINV = 0.002456 
    PIGCD =      1 
    POXEDGE =    1.3 
    XRCRG1 =     12 
    TNOIA =    1.5 
    TNOIB =    3.5 
    NTNOI =  1.554 
    XRCRG2 =      1 
    BETA0 =      2 
    IJTHDFWD = 0.001854 
    IJTHSFWD = 0.001854 
    IJTHDREV =    0.1 
    IJTHSREV =    0.1 
    XJBVD =      1 
    XJBVS =      1 
    BVD =     10 
    BVS =     10 
    VFB =     -1 
    GBMIN =  1e-12 
    RBDB =     50 
    RBPB =     50 
    RBSB =     50 
    RBPS =     50 
    RBPD =     50 
    CGSL = 1.64e-10 
    CGDL = 1.64e-10 
    CKAPPAS =    1.4 
    CKAPPAD =    1.4 
    CF =      0 
    CLC =      0 
    CLE =    0.6 
    DWC = -8e-09 
    DLC = 9.64e-09 
    DLCIG = 7.5e-09 
    DWJ =      0 
    VFBCV =     -1 
    ACDE = 0.3088 
    MOIN =  8.385 
    NOFF =  2.321 
    VOFFCV = -0.1546 
    DMCG =  1e-07 
    DMCI = 7.5e-08 
    DMDG =  1e-07 
    DMCGT =      0 
    XGW =      0 
    XGL =  5e-09 
    RSHG =     11 
    NGCON =      1 
    TCJ = 0.0008904 
    TPB = 0.001285 
    TCJSW = 0.001056 
    TPBSW = 0.0004388 
    TCJSWG = 0.0008402 
    TPBSWG = 0.001039 
    SK0 =      0 
    SK1 =      0 
    SK2 =      0 
    SL =  2e-06 
    SW =  2e-06 
    K =      0 
    LNFACTOR = 0.1398 
    LAGS =   -0.1 
    LLPE0 = 1.84e-09 
    LLPEB =  1e-35 
    LMINV = -0.00679 
    PVSAT =    130 
    PU0 =   0.05 
    TNOM =  298.1 
    CGSO = 8.2e-11 
    CGDO = 8.2e-11 
    CGBO =  1e-12 
    XPART =      0 
    RSH =     12 
    JSS = 5.603e-07 
    JSWS = 1.641e-13 
    JSWGS = 2.339e-13 
    PBS =      1 
    MJS =  0.613 
    PBSWS =    0.1 
    MJSWS = 0.09162 
    CJS = 0.00137 
    CJSWS = 6.266e-11 
    NJS =      1 
    PBSWGS =  1.118 
    MJSWGS = 0.9845 
    CJSWGS = 2.2e-10 
    XTIS =      3 
    JSD = 5.603e-07 
    JSWD = 1.641e-13 
    JSWGD = 2.339e-13 
    PBD =      1 
    MJD =  0.613 
[...]
    PHIN = 0.1385 
    EGIDL = 0.2753 
    AIGC = 0.007334 
    BIGC = 0.0008823 
    CIGC = 0.04422 
    AIGSD = 0.0073 
    BIGSD = 0.0007542 
    CIGSD = 0.006567 
    AIGBACC = 0.0115 
    BIGBACC = 0.001932 
    CIGBACC =      0 
    AIGBINV = 0.01326 
    BIGBINV = 0.002519 
    CIGBINV = 0.0005177 
    NIGC =  3.564 
    NIGBINV =   0.96 
    NIGBACC =  5.005 
    NTOX =      1 
    EIGBINV = 1.674e-06 
    PIGCD =  4.838 
    POXEDGE =      1 
    XRCRG1 =     12 
    TNOIA =    1.5 
    TNOIB =    3.5 
    NTNOI =  1.722 
    XRCRG2 =      1 
    BETA0 =      6 
    IJTHDFWD = 0.002034 
    IJTHSFWD = 0.002034 
    IJTHDREV =    0.1 
    IJTHSREV =    0.1 
    XJBVD =      1 
    XJBVS =      1 
    BVD =     10 
    BVS =     10 
    VFB =     -1 
    GBMIN =  1e-12 
    RBDB =     50 
    RBPB =     50 
    RBSB =     50 
    RBPS =     50 
    RBPD =     50 
    CGSL = 1.08e-10 
    CGDL = 1.08e-10 
    CKAPPAS =    0.6 
    CKAPPAD =    0.6 
    CF =      0 
    CLC =      0 
    CLE =    0.6 
    DWC = -8e-09 
    DLC = 1.16e-08 
    DLCIG = 7.482e-09 
    DWJ = -1e-09 
    VFBCV =     -1 
    ACDE = 0.3808 
    MOIN =  8.015 
    NOFF =  1.943 
    VOFFCV = -0.0848 
    DMCG =  1e-07 
    DMCI = 7.5e-08 
    DMDG =  1e-07 
    DMCGT =      0 
    XGW =      0 
    XGL =  5e-09 
    RSHG =     11 
    NGCON =      1 
    TCJ = 0.0008978 
    TPB = 0.001965 
    TCJSW =      0 
    TPBSW = 0.007594 
    TCJSWG = 0.0009521 
    TPBSWG = 0.0011 
    SK0 =      0 
    SK1 =      0 
    SK2 =      0 
    SL =  2e-06 
    SW =  2e-06 
    K =      0 
    LNFACTOR = 0.06076 
    LAGS = 0.1831 
    LLPE0 = 7.144e-09 
    LLPEB =  1e-35 
    LMINV = -0.0044 
    PVSAT =    100 
    PU0 =   0.15 
    TNOM =  298.1 
    CGSO = 1.456e-10 
    CGDO = 1.456e-10 
    CGBO =      0 
    XPART =      0 
    RSH =      9 
    JSS = 1.033e-07 
    JSWS = 2.244e-14 
    JSWGS = 1.687e-12 
    PBS =      1 
    MJS =  0.405 
    PBSWS =      1 
    MJSWS = 0.0541 
    CJS = 0.001205 
    CJSWS = 5.279e-11 
    NJS =      1 
    PBSWGS =      1 
    MJSWGS = 0.7831 
    CJSWGS = 2.27e-10 
    XTIS =      3 
    JSD = 1.033e-07 
    JSWD = 2.244e-14 
    JSWGD = 1.687e-12 
    PBD =      1 
    MJD =  0.405 
    PBSWD =      1 
    MJSWD = 0.0541 
    CJD = 0.001205 
    CJSWD = 5.279e-11 
    NJD =      1 
    PBSWGD =      1 
    MJSWGD = 0.7831 
    CJSWGD = 2.27e-10 
    XTID =      3 
    LMLT =      1 
    WMLT =      1 
    LINT =      0 
    LL =      0 
    LLC =      0 
    LLN =      1 
    LW =      0 
    LWC =      0 
    LWN =      1 
    LWL =      0 
    LWLC =      0 
    LMIN =  6e-08 
    LMAX = 0.0001 
    WINT =      0 
    WL =      0 
    WLC =      0 
    WLN =      1 
    WW =      0 
    WWC =      0 
    WWN =      1 
    WWL =      0 
    WWLC =      0 
    WMIN = 1.2e-07 
    WMAX =      1 
    NOIA = 2.21e+42 
    NOIB = 9.84e+24 
    NOIC = 5.5e+09 
    EM = 4.1e+07 
    EF =   1.08 
    AF =      1 
    KF = 6.5e-28 
    TRS =      0 
    TRD =      0 
    TEMPMOD  =      1 
    LAMBDA   =      0 
    VTL      =  2e+05 m/s
    LC       =  5e-09 
    XN       =      3 
    LLAMBDA  =      0 
    LVTL     =      0 
    LXN      =      0 
    WLAMBDA  =      0 
    WVTL     =      0 
    WXN      =      0 
    PLAMBDA  =      0 
    PVTL     =      0 
    PXN      =      0 
    RNOIA    =  0.577 
    RNOIB    = 0.5164 
    SAREF(SA0) = 4.5e-07 m
    SBREF(SB0) = 4.5e-07 m
    WLOD     =      0 m
    KU0      = -1.1e-08 1/m
    KVSAT    =      0 
    KVTH0    = -1.1e-09 m
    TKU0     =      0 
    LLODKU0  =      0 
    WLODKU0  =      0 
    LLODVTH  =      0 
    WLODVTH  =      0 
    LKU0     =      0 
    WKU0     =      0 
    PKU0     =      0 
    LKVTH0   =      0 
    WKVTH0   =      0 
    PKVTH0   =      0 
    STK2     =      0 
    LODK2    =      1 
    STETA0   =      0 
    LODETA0  =      1 
    LXRCRG1  =      0 
    WXRCRG1  =      0 
    PXRCRG1  =      0 
    LXRCRG2  =      0 
    WXRCRG2  =      0 
    PXRCRG2  =      0 
     *** UCB's BSIM4.4.0 new diode model is activated. ***
    *** UCB's Diode Model Parameters ***
    JTSS         =      0 
    JTSSWS       =      0 
    JTSSWGS      =  1e-09 
    JTSD         =      0 
    JTSSWD       =      0 
    JTSSWGD      =  1e-09 
    NJTS         =     20 
    NJTSSW       =     20 
    NJTSSWG      =     20 
    XTSS         =   0.02 
    XTSSWS       =   0.02 
    XTSSWGS      =   0.02 
    XTSD         =   0.02 
    XTSSWD       =   0.02 
    XTSSWGD      =   0.02 
    TNJTS        =      0 
    TNJTSSW      =      0 
    TNJTSSWG     =      0 
    VFBSDOFF     =      0 
    LVFBSDOFF    =      0 
    WVFBSDOFF    =      0 
    PVFBSDOFF    =      0 
    LINTNOI      =  5e-09 
    VTSS         =     10 
    VTSD         =     10 
    VTSSWS       =     10 
    VTSSWD       =     10 
    VTSSWGS      =     10 
    VTSSWGD      =     10 
    TTDIOMOD     =      1 
     *** UCB's BSIM4.5.0 new model is activated. ***
    UD         =      0 
    UD1        =      0 
    UP         = -2.419 
    LP         = 3.036e-08 
    TVOFF      =      0 
    TVFBSDOFF  =      0 
    RBPS0      =     50 
    RBPSL      =      0 
    RBPSW      =      0 
    RBPSNF     =      0 
    RBPD0      =     50 
    RBPDL      =      0 
    RBPDW      =      0 
    RBPDNF     =      0 
    RBPBX0     =    100 
    RBPBXL     =      0 
    RBPBXW     =      0 
    RBPBXNF    =      0 
    RBPBY0     =    100 
    RBPBYL     =      0 
    RBPBYW     =      0 
    RBPBYNF    =      0 
    RBSBX0     =    100 
    RBSBY0     =    100 
    RBDBX0     =    100 
    RBDBY0     =    100 
    RBSDBXL    =      0 
    RBSDBXW    =      0 
    RBSDBXNF   =      0 
    RBSDBYL    =      0 
    RBSDBYW    =      0 
    RBSDBYNF   =      0 
    LUD        =      0 
    LUD1       =      0 
    LUP        =      0 
    LLP        =      0 
    LTVOFF     =      0 
    LTVFBSDOFF =      0 
    WUD        =      0 
    WUD1       =      0 
    WUP        =      0 
    WLP        =      0 
    WTVOFF     =      0 
    WTVFBSDOFF =      0 
    PUD        =      0 
    PUD1       =      0 
    PUP        =      0 
    PLP        =      0 
    PTVOFF     =      0 
    PTVFBSDOFF =      0 
    WEB        =      0 
    WEC        =      0 
    KVTH0WE    =      0 
    K2WE       =      0 
    KU0WE      =      0 
    SCREF      =  1e-06 
    WPEMOD     =      0 
    LKVTH0WE   =      0 
    LK2WE      =      0 
    LKU0WE     =      0 
    WKVTH0WE   =      0 
    WK2WE      =      0 
    WKU0WE     =      0 
    PKVTH0WE   =      0 
    PK2WE      =      0 
    PKU0WE     =      0 
  **info** (dff_hspice1.sp:8) DC voltage reset to initial transient source value in source 0:vclk. new dc=0.0000D+00
  **warning** (dff_hspice1.sp:27) Unable to find referenced node out; Output variable ignored. Specify a valid node.
  
      

Element variations(Local):   element              parameter
 *****************************************************************
 ******  option summary
 ******
 runlvl  = 5         bypass  = 2.0000    
             
 Summary of Linear Res Distribution Info
 ---------------------------------------
 |Range          |Total     |Percent(%)|
 |---------------+----------+----------|
 |1e-03  ~  1e-02|4         |1.1396    |
 |1e-02  ~  1e-01|55        |15.6695   |
 |1e-01  ~  1e+00|64        |18.2336   |
 |1e+00  ~  1e+03|228       |64.9573   |
 ---------------------------------------
              
             
 Summary of Linear Cap Distribution Info
 ---------------------------------------
 |Range          |Total     |Percent(%)|
 |---------------+----------+----------|
 |1e-21  ~  1e-20|3         |0.3333    |
 |1e-20  ~  1e-19|15        |1.6667    |
 |1e-19  ~  1e-18|111       |12.3333   |
 |1e-18  ~  1e-17|478       |53.1111   |
 |1e-17  ~  1e-16|288       |32.0000   |
 |1e-16  ~  1e-15|4         |0.4444    |
 |1e-14  ~  1e-13|1         |0.1111    |
 ---------------------------------------
              
             
 Summary of Detailed RC Type Statistics
 -------------------------
 |Element Type|Number    |
 |------------+----------|
 |Constant Res|351       |
 |            |          |
 |Constant Cap|900       |
 -------------------------
              
  Opening plot unit= 15
 file=dff_hspice1.pa0

End of pVA setup    on Wed Nov 13 10:34:28 2024	GTM/In-use: 61.0000/49.9860 MB

 **info** dc convergence successful at Newton-Raphson method 
 ******  
 $example hspice setup file

 ****** operating point information tnom=  25.000 temp=  25.000 ******
 ****** operating point status is voltage   simulation time is     0.     
     node    =voltage       node    =voltage       node    =voltage

 + 0:clk     =   0.       0:d       =   0.       0:q       =   1.2000 
 + 0:r       =   0.       0:vdd!    =   1.2000   1:n_gnd!_d=  36.4069p
 + 1:n_vdd!_d=   1.2000   1:n_!clk_c=   1.2000   1:n_!clk_c=   1.2000 
 + 1:n_!clk_c=   1.2000   1:n_!clk_c=   1.2000   1:n_!clk_c=   1.2000 
 + 1:n_!clk_c=   1.2000   1:n_!clk_c=   1.2000   1:n_!clk_c=   1.2000 
 + 1:n_!clk_c=   1.2000   1:n_!clk_c=   1.2000   1:n_!clk_c=   1.2000 
 + 1:n_!clk_c=   1.2000   1:n_!clk_c=   1.2000   1:n_!clk_c=   1.2000 
 + 1:n_!clk_c=   1.2000   1:n_!clk_c=   1.2000   1:n_!clk_c=   1.2000 
 + 1:n_!clk_c=   1.2000   1:n_!clk_c=   1.2000   1:n_!clk_c=   1.2000 
 + 1:n_!clk_c=   1.2000   1:n_!clk_c=   1.2000   1:n_!clk_c=   1.2000 
 + 1:n_!clk_c=   1.2000   1:n_!clk_c=   1.2000   1:n_!clk_c=   1.2000 
 + 1:n_!clk_c=   1.2000   1:n_!clk_m=   1.2000   1:n_!clk_m=   1.2000 
 + 1:n_!clk_m=   1.2000   1:n_!clk_m=   1.2000   1:n_!clk_m=   1.2000 
 + 1:n_!clk_m=   1.2000   1:n_!clk_m=   1.2000   1:n_!clk_m=   1.2000 
 + 1:n_a_c_22= 142.0868n  1:n_a_c_22= 142.2072n  1:n_a_c_23= 142.0541n
 + 1:n_a_c_23= 141.9955n  1:n_a_c_24= 141.9961n  1:n_a_c_24= 141.9964n
 + 1:n_a_mmn3= 141.3461n  1:n_a_mmn5= 142.2376n  1:n_a_mmp3= 142.5617n
 + 1:n_a_mmp5= 142.1133n  1:n_b_c_32=   1.2000   1:n_b_c_32=   1.2000 
 + 1:n_b_c_33=   1.2000   1:n_b_c_34=   1.2000   1:n_b_c_34=   1.2000 
 + 1:n_b_c_35=   1.2000   1:n_b_c_35=   1.2000   1:n_b_c_36=   1.2000 
 + 1:n_b_c_36=   1.2000   1:n_b_c_37=   1.2000   1:n_b_c_38=   1.2000 
 + 1:n_b_c_38=   1.2000   1:n_b_c_43=   1.2000   1:n_b_c_43=   1.2000 
 + 1:n_b_mmn1=   1.2000   1:n_b_mmn5=   1.2000   1:n_b_mmn8=   1.2000 
 + 1:n_b_mmp1=   1.2000   1:n_b_mmp6=   1.2000   1:n_b_mmp8=   1.2000 
 + 1:n_c_c_10=  84.4376n  1:n_c_c_10=  84.4321n  1:n_c_c_10=  84.4443n
 + 1:n_c_c_10=  84.4112n  1:n_c_c_10=  84.3815n  1:n_c_c_10=  84.4027n
 + 1:n_c_c_10=  84.4019n  1:n_c_c_10=  84.4317n  1:n_c_c_10=  84.4096n
 + 1:n_c_c_11=  84.4246n  1:n_c_c_11=  84.4681n  1:n_c_c_11=  84.4112n
 + 1:n_c_mmn1=  84.4413n  1:n_c_mmn1=  84.4524n  1:n_c_mmn9=  84.0151n
 + 1:n_c_mmp1=  84.4979n  1:n_c_mmp1=  84.4750n  1:n_c_mmp9=  84.6853n
 + 1:n_clk_c_=   8.5242n  1:n_clk_c_=   4.8909n  1:n_clk_c_=   1.4243n
 + 1:n_clk_c_=   8.5242n  1:n_clk_c_=   8.5242n  1:n_clk_c_=   6.1883n
 + 1:n_clk_c_=   8.5242n  1:n_clk_c_=   8.5242n  1:n_clk_c_=   8.5242n
 + 1:n_clk_c_=   8.5242n  1:n_clk_c_=   8.5242n  1:n_clk_c_=   8.5242n
 + 1:n_clk_c_=   8.5242n  1:n_clk_c_=   7.5392n  1:n_clk_c_=   8.5242n
 + 1:n_clk_c_=   8.5242n  1:n_clk_c_=  68.6774p  1:n_clk_c_=   1.0786n
 + 1:n_clk_c_=   8.6327n  1:n_clk_c_=   8.6326n  1:n_clk_c_=   1.3356n
 + 1:n_clk_c_=   8.6326n  1:n_clk_c_=   8.6326n  1:n_clk_c_=   8.6327n
 + 1:n_clk_c_=   8.6326n  1:n_clk_c_=   8.6325n  1:n_clk_c_=   8.6325n
 + 1:n_clk_c_=   8.6327n  1:n_clk_c_=   8.6327n  1:n_clk_c_=   8.6325n
 + 1:n_clk_mm=   8.5242n  1:n_clk_mm=   8.5012n  1:n_clk_mm=   3.8411n
 + 1:n_clk_mm=   8.5242n  1:n_clk_mm=   8.9640n  1:n_clk_mm=   1.3662n
 + 1:n_clk_mm=   8.6328n  1:n_clk_mm=   8.6327n  1:n_d_c_15=  25.7577p
 + 1:n_d_c_15=  25.1180p  1:n_d_c_15=  25.7577p  1:n_d_c_15=   1.3830p
 + 1:n_d_c_15=  60.4020p  1:n_d_mmn4=  25.7577p  1:n_d_mmp4=  90.4155p
 + 1:n_e_c_11=   1.2000   1:n_e_c_11=   1.2000   1:n_e_c_11=   1.2000 
 + 1:n_e_c_12=   1.2000   1:n_e_c_12=   1.2000   1:n_e_c_12=   1.2000 
 + 1:n_e_c_12=   1.2000   1:n_e_c_12=   1.2000   1:n_e_c_12=   1.2000 
 + 1:n_e_mmn1=   1.2000   1:n_e_mmn1=   1.2000   1:n_e_mmp1=   1.2000 
 + 1:n_e_mmp1=   1.2000   1:n_gnd!_c=   0.       1:n_gnd!_c=  77.8843p
 + 1:n_gnd!_c=   5.7130a  1:n_gnd!_c=   0.       1:n_gnd!_c= 138.1799p
 + 1:n_gnd!_c= 257.8469p  1:n_gnd!_c=   0.       1:n_gnd!_c= 103.5140p
 + 1:n_gnd!_c= 112.7053p  1:n_gnd!_c=  80.7223p  1:n_gnd!_c=   0.     
 + 1:n_gnd!_c=   0.       1:n_gnd!_c=   0.       1:n_gnd!_m= 731.7760p
 + 1:n_gnd!_m= 884.9743p  1:n_gnd!_m=   1.3088n  1:n_gnd!_m= 836.3498p
 + 1:n_gnd!_m=  62.6332a  1:n_gnd!_m=   1.7429n  1:n_gnd!_m= 761.8240p
 + 1:n_q_c_10=   1.2000   1:n_q_mmn1=   1.2000   1:n_q_mmp1=   1.2000 
 + 1:n_r_c_15=  63.7655p  1:n_r_c_15= 800.6562p  1:n_r_c_15=  61.3421p
 + 1:n_r_c_15=  62.9043p  1:n_r_c_15=   3.3775p  1:n_r_c_15= 294.0747p
 + 1:n_r_c_15= 330.1581p  1:n_r_c_15= 140.2884p  1:n_r_c_16= 397.7693p
 + 1:n_r_c_16= 422.9078p  1:n_r_c_16= 447.6296p  1:n_r_c_16= 633.6752p
 + 1:n_r_c_16= 629.8570p  1:n_r_c_16= 304.9862p  1:n_r_c_16= 512.7116p
 + 1:n_r_c_16= 561.6274p  1:n_r_c_16= 586.9897p  1:n_r_c_16= 297.8929p
 + 1:n_r_mmn1= 819.4457p  1:n_r_mmn6= 207.3287p  1:n_r_mmp1= 794.3988p
 + 1:n_r_mmp6=  74.1250p  1:n_vdd!_c=   1.2000   1:n_vdd!_c=   1.2000 
 + 1:n_vdd!_c=   1.2000   1:n_vdd!_c=   1.2000   1:n_vdd!_c=   1.2000 
 + 1:n_vdd!_c=   1.2000   1:n_vdd!_c=   1.2000   1:n_vdd!_c=   1.2000 
 + 1:n_vdd!_c=   1.2000   1:n_vdd!_m=   1.2000   1:n_vdd!_m=   1.2000 
 + 1:n_vdd!_m=   1.2000   1:n_vdd!_m=   1.2000   1:n_vdd!_m=   1.2000 
 + 1:net050  =   1.1096   1:net051  =   1.2000   1:net052  = 193.2383m
 + 1:net053  = 194.2593m  1:net056  =   3.2723n  1:net057  =  45.0699n
 + 1:net058  =  73.9871n  1:net51   =   1.2000   1:net56   =  73.8388n
 + 1:net58   =   1.2000  33:4       = 8.363e-20 33:10      =   0.     
 +33:11      =   2.9614p 33:17      =   0.      33:18      =   1.2944p
 +33:24      =   0.      33:25      =   1.0767p 33:31      =   0.     
 +33:32      =   1.7199p 33:38      =   0.      33:39      =   1.1816p
 +33:45      =   0.      33:46      =   1.6601p 34:1       = 142.0579n
 +34:3       = 142.1353n 34:12      = 141.9960n 34:17      = 142.0806n
 +34:20      = 142.0868n 34:26      = 142.0213n 35:3       =   1.2000 
 +35:9       =   1.2000  35:11      =   1.2000  35:25      =   1.2000 
 +35:26      =   1.2000  35:28      =   1.2000  35:35      =   1.2000 
 +35:37      =   1.2000  35:42      =   1.2000  35:45      =   1.2000 
 +35:46      =   1.2000  35:49      =   1.2000  35:54      =   1.2000 
 +36:1       =   1.2000  36:3       =   1.2000  36:9       =   1.2000 
 +36:13      =   1.2000  36:15      =   1.2000  36:21      =   1.2000 
 +36:25      =   1.2000  36:27      =   1.2000  36:45      =   1.2000 
 +36:48      =   1.2000  36:53      =   1.2000  36:59      =   1.2000 
 +36:65      =   1.2000  36:66      =   1.2000  36:69      =   1.2000 
 +36:71      =   1.2000  36:76      =   1.2000  36:79      =   1.2000 
 +36:80      =   1.2000  37:1       =   8.5242n 37:7       =   8.6328n
 +37:9       =   6.0375n 37:11      =   2.7868n 37:13      =   1.3072n
 +37:19      =   8.6327n 37:21      =   8.5242n 37:43      =   8.5242n
 +37:48      =   8.5242n 37:51      =   8.6327n 37:56      =   8.6327n
 +37:59      =   8.5242n 37:64      =   8.5242n 37:67      =   8.6326n
 +37:71      =   8.6326n 37:72      =   8.6326n 37:75      =   8.6326n
 +37:78      =   8.6325n 37:83      =   8.5536n 37:86      =   8.6282n
 +37:89      =   8.6325n 37:91      =   8.5242n 37:94      =   8.5242n
 +37:102     =   8.5242n 37:138     =   1.3047n 38:5       =   1.2000 
 +38:9       =   1.2000  38:11      =   1.2000  39:3       =  84.4479n
 +39:9       =  84.4368n 39:11      =  84.4339n 39:26      =  84.4117n
 +39:27      =  84.4368n 39:29      =  84.4003n 39:34      =  84.4035n
 +39:36      =  84.4127n 39:41      =  84.4280n 39:44      =  84.4019n
 +39:47      =  84.4272n 40:3       =   1.2000  40:14      =   1.2000 
 +40:15      =   1.2000  40:17      =   1.2000  40:24      =   1.2000 
 +40:26      =   1.2000  40:31      =   1.2000  41:4       =   1.2000 
 +41:10      =   1.2000  41:13      =   1.2000  41:14      =   1.2000 
 +41:20      =   1.2000  41:23      =   1.2000  41:24      =   1.2000 
 +41:30      =   1.2000  41:33      =   1.2000  41:34      =   1.2000 
 +41:40      =   1.2000  41:43      =   1.2000  41:44      =   1.2000 
 +41:50      =   1.2000  42:3       =  25.7577p 42:5       =  29.8884p
 +42:22      =  21.7214p 43:3       =  69.6058p 43:5       =  72.1309p
 +43:7       = 243.8106p 43:11      = 814.9265p 43:13      = 757.9168p
 +43:28      = 329.7079p 43:33      = 354.8798p 43:36      = 422.4910p
 +43:44      = 511.8496p 43:45      = 487.1279p 43:49      = 537.4333p
 +43:52      = 586.3492p 43:57      = 611.7114p 43:66      =  53.0472p

 ******
 $example hspice setup file

 ****** transient analysis tnom=  25.000 temp=  25.000 ******
 trise=   failed
 tfall=   failed
 tavg=   failed
 tdiff=   failed
 delay=   failed
 iavg= -10.3393u  from=   0.             to=  10.0000n
 energy=-124.0718f
 edp1=   failed
 t1=   2.0004n
 t2=   failed
 t3=   1.0004n
 t4=   9.0743n
 i1=   failed  from=   failed     to=   failed
 i2= -12.3181u  from=   1.0004n     to=   9.0743n
 energy1=   failed
 energy2=-119.3463f
 energysum=   failed
 edp2=   failed

          ***** job concluded
 ******  
 $example hspice setup file

 ****** job statistics summary tnom=  25.000 temp=  25.000 ******
  
 ******  Machine Information  ******
 CPU:
 model name	: AMD EPYC 7F32 8-Core Processor
 cpu MHz	: 3693.170
  
 OS:
 Linux version 3.10.0-1160.119.1.el7.x86_64 (mockbuild@x86-vm-39.brew-001.prod.iad2.dc.redhat.com) (gcc version 4.8.5 20150623 (Red Hat 4.8.5-44) (GCC) ) #1 SMP Tue May 14 11:55:25 EDT 2024


  ******  HSPICE Threads Information  ******

  Command Line Threads Count :     1
  Available CPU Count        :    32
  Actual Threads Count       :     1


  ******  Circuit Statistics  ******
  # nodes       =     407 # elements   =    1286
  # resistors   =     351 # capacitors =     900 # inductors   =       0
  # mutual_inds =       0 # vccs       =       0 # vcvs        =       0
  # cccs        =       0 # ccvs       =       0 # volt_srcs   =       4
  # curr_srcs   =       0 # diodes     =       1 # bjts        =       0
  # jfets       =       0 # mosfets    =      30 # U elements  =       0
  # T elements  =       0 # W elements =       0 # B elements  =       0
  # S elements  =       0 # P elements =       0 # va device   =       0
  # vector_srcs =       0 # N elements =       0


  ******  Runtime Statistics (seconds)  ******

  analysis           time    # points   tot. iter  conv.iter
  op point           0.03           1          38
  transient          0.18         121        1285         514 rev=        80
  readin             1.71
  errchk             0.07
  setup              0.00
  output             0.00


           peak memory used        374.16 megabytes
           total cpu time            1.99 seconds
           total elapsed time        6.94 seconds
           job started at     10:34:21 11/13/2024
           job ended   at     10:34:28 11/13/2024



>info:         ***** hspice job concluded
 lic: Release hspice token(s) 
 lic: total license checkout elapse time:        0.02(s)

End of pVA simulation reached at time 0 on Wed Nov 13 10:34:28 2024	GTM/In-use: 61.0000/49.6116 MB


			pVA malloc          4.840 Mbytes       100792 times
			pVA calloc         79.545 Mbytes       547191 times
			pVA realloc         3.622 Mbytes         1826 times
			pVA valloc          0.000 Mbytes            0 times
			pVA alloca          0.000 Mbytes            0 times

			pVA TOT-MEM        88.006 Mbytes       649809 times
			pVA free                               132695 times
			pVA strdup          0.000 Mbytes            0 times


pVA concluded on Wed Nov 13 10:34:28 2024	GTM/In-use: 61.0000/49.6116 MB

