$DATA1 SOURCE='HSPICE' VERSION='O-2018.09-2 linux64' PARAM_COUNT=1
.TITLE '$example hspice setup file'
 t1               trise            tfall            tavg            
                  tdiff            delay            iavg            
                  energy           edp1             t1              
                  t2               t3               t4              
                  i1               i2               energy1         
                  energy2          energysum        edp2            
                  temper           alter#          
  5.400e-09        8.284e-09        5.157e-09        6.721e-09      
                   3.127e-09        8.284e-09       -1.020e-05      
                  -1.224e-13        1.014e-21        1.950e-09      
                   1.076e-08        1.000e-09        6.485e-09      
                  -2.738e-05       -1.214e-05       -1.761e-13      
                  -7.993e-14       -2.560e-13        2.121e-21      
                    25.0000        1               
  5.405e-09        8.284e-09        5.157e-09        6.720e-09      
                   3.127e-09        8.284e-09       -1.020e-05      
                  -1.224e-13        1.014e-21        1.950e-09      
                   1.076e-08        1.000e-09        6.479e-09      
                  -2.741e-05       -1.216e-05       -1.761e-13      
                  -7.992e-14       -2.561e-13        2.121e-21      
                    25.0000        1               
  5.410e-09        8.284e-09        5.157e-09        6.721e-09      
                   3.127e-09        8.284e-09       -1.020e-05      
                  -1.224e-13        1.014e-21        1.950e-09      
                   1.076e-08        1.000e-09        6.485e-09      
                  -2.743e-05       -1.215e-05       -1.761e-13      
                  -7.995e-14       -2.561e-13        2.121e-21      
                    25.0000        1               
  5.415e-09        8.284e-09        5.157e-09        6.721e-09      
                   3.127e-09        8.284e-09       -1.020e-05      
                  -1.225e-13        1.014e-21        1.950e-09      
                   1.076e-08        1.000e-09        6.479e-09      
                  -2.747e-05       -1.216e-05       -1.762e-13      
                  -7.996e-14       -2.561e-13        2.122e-21      
                    25.0000        1               
  5.420e-09        8.284e-09        5.157e-09        6.721e-09      
                   3.127e-09        8.284e-09       -1.020e-05      
                  -1.224e-13        1.014e-21        1.950e-09      
                   1.075e-08        1.000e-09        6.486e-09      
                  -2.749e-05       -1.214e-05       -1.760e-13      
                  -7.994e-14       -2.559e-13        2.120e-21      
                    25.0000        1               
  5.425e-09        8.284e-09        5.157e-09        6.721e-09      
                   3.127e-09        8.284e-09       -1.020e-05      
                  -1.224e-13        1.014e-21        1.950e-09      
                   1.075e-08        1.000e-09        6.479e-09      
                  -2.752e-05       -1.216e-05       -1.760e-13      
                  -7.996e-14       -2.559e-13        2.120e-21      
                    25.0000        1               
  5.430e-09        8.284e-09        5.157e-09        6.720e-09      
                   3.127e-09        8.284e-09       -1.020e-05      
                  -1.224e-13        1.014e-21        1.950e-09      
                   1.076e-08        1.000e-09        6.486e-09      
                  -2.753e-05       -1.215e-05       -1.759e-13      
                  -7.996e-14       -2.559e-13        2.120e-21      
                    25.0000        1               
  5.435e-09        8.284e-09        5.157e-09        6.721e-09      
                   3.127e-09        8.284e-09       -1.020e-05      
                  -1.225e-13        1.014e-21        1.950e-09      
                   1.076e-08        1.000e-09        6.485e-09      
                  -2.755e-05       -1.214e-05       -1.761e-13      
                  -7.994e-14       -2.560e-13        2.121e-21      
                    25.0000        1               
  5.440e-09        8.284e-09        5.157e-09        6.721e-09      
                   3.127e-09        8.284e-09       -1.020e-05      
                  -1.224e-13        1.014e-21        1.950e-09      
                   1.076e-08        1.000e-09        6.484e-09      
                  -2.759e-05       -1.215e-05       -1.761e-13      
                  -7.994e-14       -2.560e-13        2.121e-21      
                    25.0000        1               
  5.445e-09        8.284e-09        5.157e-09        6.721e-09      
                   3.127e-09        8.284e-09       -1.020e-05      
                  -1.224e-13        1.014e-21        1.950e-09      
                   1.076e-08        1.000e-09        6.484e-09      
                  -2.762e-05       -1.215e-05       -1.761e-13      
                  -7.994e-14       -2.561e-13        2.121e-21      
                    25.0000        1               
  5.450e-09        8.284e-09        5.157e-09        6.721e-09      
                   3.127e-09        8.284e-09       -1.020e-05      
                  -1.224e-13        1.014e-21        1.950e-09      
                   1.075e-08        1.000e-09        6.485e-09      
                  -2.765e-05       -1.214e-05       -1.760e-13      
                  -7.994e-14       -2.559e-13        2.120e-21      
                    25.0000        1               
  5.455e-09        8.284e-09        5.157e-09        6.720e-09      
                   3.127e-09        8.284e-09       -1.020e-05      
                  -1.224e-13        1.014e-21        1.950e-09      
                   1.076e-08        1.000e-09        6.482e-09      
                  -2.767e-05       -1.215e-05       -1.760e-13      
                  -7.993e-14       -2.559e-13        2.120e-21      
                    25.0000        1               
  5.460e-09        8.284e-09        5.157e-09        6.721e-09      
                   3.127e-09        8.284e-09       -1.020e-05      
                  -1.224e-13        1.014e-21        1.950e-09      
                   1.076e-08        1.000e-09        6.481e-09      
                  -2.770e-05       -1.215e-05       -1.761e-13      
                  -7.993e-14       -2.561e-13        2.121e-21      
                    25.0000        1               
  5.465e-09        8.284e-09        5.157e-09        6.721e-09      
                   3.127e-09        8.284e-09       -1.020e-05      
                  -1.224e-13        1.014e-21        1.950e-09      
                   1.076e-08        1.000e-09        6.483e-09      
                  -2.772e-05       -1.215e-05       -1.761e-13      
                  -7.993e-14       -2.560e-13        2.121e-21      
                    25.0000        1               
  5.470e-09        8.284e-09        5.157e-09        6.721e-09      
                   3.127e-09        8.284e-09       -1.020e-05      
                  -1.224e-13        1.014e-21        1.950e-09      
                   1.076e-08        1.000e-09        6.483e-09      
                  -2.775e-05       -1.215e-05       -1.761e-13      
                  -7.993e-14       -2.561e-13        2.121e-21      
                    25.0000        1               
  5.475e-09        8.284e-09        5.157e-09        6.721e-09      
                   3.127e-09        8.284e-09       -1.020e-05      
                  -1.225e-13        1.014e-21        1.950e-09      
                   1.076e-08        1.000e-09        6.482e-09      
                  -2.778e-05       -1.215e-05       -1.762e-13      
                  -7.994e-14       -2.561e-13        2.122e-21      
                    25.0000        1               
  5.480e-09        8.284e-09        5.157e-09        6.720e-09      
                   3.127e-09        8.284e-09       -1.020e-05      
                  -1.224e-13        1.014e-21        1.950e-09      
                   1.076e-08        1.000e-09        6.485e-09      
                  -2.780e-05       -1.215e-05       -1.760e-13      
                  -7.996e-14       -2.560e-13        2.120e-21      
                    25.0000        1               
  5.485e-09        8.284e-09        5.157e-09        6.721e-09      
                   3.127e-09        8.284e-09       -1.020e-05      
                  -1.224e-13        1.014e-21        1.950e-09      
                   1.076e-08        1.000e-09        6.484e-09      
                  -2.783e-05       -1.215e-05       -1.761e-13      
                  -7.995e-14       -2.561e-13        2.121e-21      
                    25.0000        1               
  5.490e-09        8.284e-09        5.157e-09        6.721e-09      
                   3.127e-09        8.284e-09       -1.020e-05      
                  -1.225e-13        1.014e-21        1.950e-09      
                   1.076e-08        1.000e-09        6.482e-09      
                  -2.786e-05       -1.216e-05       -1.760e-13      
                  -7.996e-14       -2.560e-13        2.121e-21      
                    25.0000        1               
  5.495e-09        8.284e-09        5.157e-09        6.721e-09      
                   3.127e-09        8.284e-09       -1.020e-05      
                  -1.224e-13        1.014e-21        1.950e-09      
                   1.075e-08        1.000e-09        6.485e-09      
                  -2.789e-05       -1.215e-05       -1.760e-13      
                  -7.995e-14       -2.559e-13        2.120e-21      
                    25.0000        1               
  5.500e-09        8.284e-09        5.157e-09        6.721e-09      
                   3.127e-09        8.284e-09       -1.020e-05      
                  -1.224e-13        1.014e-21        1.950e-09      
                   1.076e-08        1.000e-09        6.479e-09      
                  -2.790e-05       -1.216e-05       -1.762e-13      
                  -7.996e-14       -2.561e-13        2.122e-21      
                    25.0000        1               
  5.505e-09        8.284e-09        5.157e-09        6.720e-09      
                   3.127e-09        8.284e-09       -1.021e-05      
                  -1.225e-13        1.015e-21        1.950e-09      
                   1.076e-08        1.000e-09        6.486e-09      
                  -2.794e-05       -1.215e-05       -1.761e-13      
                  -7.995e-14       -2.560e-13        2.121e-21      
                    25.0000        1               
  5.510e-09        8.284e-09        5.157e-09        6.720e-09      
                   3.127e-09        8.284e-09       -1.020e-05      
                  -1.224e-13        1.014e-21        1.950e-09      
                   1.076e-08        1.000e-09        6.482e-09      
                  -2.796e-05       -1.215e-05       -1.760e-13      
                  -7.995e-14       -2.560e-13        2.120e-21      
                    25.0000        1               
  5.515e-09        8.284e-09        5.157e-09        6.721e-09      
                   3.127e-09        8.284e-09       -1.020e-05      
                  -1.224e-13        1.014e-21        1.950e-09      
                   1.075e-08        1.000e-09        6.483e-09      
                  -2.799e-05       -1.215e-05       -1.759e-13      
                  -7.992e-14       -2.558e-13        2.119e-21      
                    25.0000        1               
  5.520e-09        8.284e-09        5.157e-09        6.721e-09      
                   3.127e-09        8.284e-09       -1.020e-05      
                  -1.224e-13        1.014e-21        1.950e-09      
                   1.076e-08        1.000e-09        6.486e-09      
                  -2.801e-05       -1.214e-05       -1.761e-13      
                  -7.992e-14       -2.560e-13        2.121e-21      
                    25.0000        1               
  5.525e-09        8.284e-09        5.157e-09        6.721e-09      
                   3.127e-09        8.284e-09       -1.020e-05      
                  -1.224e-13        1.014e-21        1.950e-09      
                   1.075e-08        1.000e-09        6.484e-09      
                  -2.804e-05       -1.214e-05       -1.760e-13      
                  -7.992e-14       -2.559e-13        2.120e-21      
                    25.0000        1               
  5.530e-09        8.284e-09        5.157e-09        6.720e-09      
                   3.127e-09        8.284e-09       -1.020e-05      
                  -1.224e-13        1.014e-21        1.950e-09      
                   1.076e-08        1.000e-09        6.483e-09      
                  -2.807e-05       -1.215e-05       -1.760e-13      
                  -7.992e-14       -2.559e-13        2.120e-21      
                    25.0000        1               
  5.535e-09        8.284e-09        5.157e-09        6.721e-09      
                   3.127e-09        8.284e-09       -1.020e-05      
                  -1.224e-13        1.014e-21        1.950e-09      
                   1.076e-08        1.000e-09        6.483e-09      
                  -2.807e-05       -1.215e-05       -1.760e-13      
                  -7.992e-14       -2.559e-13        2.120e-21      
                    25.0000        1               
  5.540e-09        8.284e-09        5.157e-09        6.721e-09      
                   3.127e-09        8.284e-09       -1.020e-05      
                  -1.224e-13        1.014e-21        1.950e-09      
                   1.076e-08        1.000e-09        6.483e-09      
                  -2.812e-05       -1.215e-05       -1.761e-13      
                  -7.992e-14       -2.560e-13        2.121e-21      
                    25.0000        1               
  5.545e-09        8.284e-09        5.157e-09        6.721e-09      
                   3.127e-09        8.284e-09       -1.020e-05      
                  -1.224e-13        1.014e-21        1.950e-09      
                   1.075e-08        1.000e-09        6.486e-09      
                  -2.816e-05       -1.214e-05       -1.759e-13      
                  -7.992e-14       -2.558e-13        2.119e-21      
                    25.0000        1               
  5.550e-09        8.284e-09        5.157e-09        6.721e-09      
                   3.127e-09        8.284e-09       -1.020e-05      
                  -1.224e-13        1.014e-21        1.950e-09      
                   1.076e-08        1.000e-09        6.483e-09      
                  -2.817e-05       -1.215e-05       -1.760e-13      
                  -7.992e-14       -2.559e-13        2.120e-21      
                    25.0000        1               
  5.555e-09        8.284e-09        5.157e-09        6.721e-09      
                   3.127e-09        8.284e-09       -1.020e-05      
                  -1.224e-13        1.014e-21        1.950e-09      
                   1.076e-08        1.000e-09        6.483e-09      
                  -2.818e-05       -1.215e-05       -1.760e-13      
                  -7.992e-14       -2.560e-13        2.120e-21      
                    25.0000        1               
  5.560e-09        8.284e-09        5.157e-09        6.721e-09      
                   3.127e-09        8.284e-09       -1.020e-05      
                  -1.224e-13        1.014e-21        1.950e-09      
                   1.076e-08        1.000e-09        6.484e-09      
                  -2.823e-05       -1.215e-05       -1.762e-13      
                  -7.995e-14       -2.561e-13        2.122e-21      
                    25.0000        1               
  5.565e-09        8.284e-09        5.157e-09        6.721e-09      
                   3.127e-09        8.284e-09       -1.020e-05      
                  -1.224e-13        1.014e-21        1.950e-09      
                   1.076e-08        1.000e-09        6.485e-09      
                  -2.825e-05       -1.215e-05       -1.761e-13      
                  -7.993e-14       -2.560e-13        2.121e-21      
                    25.0000        1               
  5.570e-09        8.284e-09        5.157e-09        6.721e-09      
                   3.127e-09        8.284e-09       -1.020e-05      
                  -1.224e-13        1.014e-21        1.950e-09      
                   1.076e-08        1.000e-09        6.485e-09      
                  -2.828e-05       -1.215e-05       -1.762e-13      
                  -7.994e-14       -2.561e-13        2.121e-21      
                    25.0000        1               
  5.575e-09        8.284e-09        5.157e-09        6.721e-09      
                   3.127e-09        8.284e-09       -1.020e-05      
                  -1.224e-13        1.014e-21        1.950e-09      
                   1.076e-08        1.000e-09        6.479e-09      
                  -2.831e-05       -1.216e-05       -1.762e-13      
                  -7.994e-14       -2.561e-13        2.122e-21      
                    25.0000        1               
  5.580e-09        8.284e-09        5.157e-09        6.721e-09      
                   3.127e-09        8.284e-09       -1.020e-05      
                  -1.224e-13        1.014e-21        1.950e-09      
                   1.075e-08        1.000e-09        6.478e-09      
                  -2.835e-05       -1.216e-05       -1.760e-13      
                  -7.994e-14       -2.559e-13        2.120e-21      
                    25.0000        1               
  5.585e-09        8.284e-09        5.157e-09        6.720e-09      
                   3.127e-09        8.284e-09       -1.020e-05      
                  -1.224e-13        1.014e-21        1.950e-09      
                   1.076e-08        1.000e-09        6.484e-09      
                  -2.836e-05       -1.215e-05       -1.760e-13      
                  -7.995e-14       -2.559e-13        2.120e-21      
                    25.0000        1               
  5.590e-09        8.284e-09        5.157e-09        6.720e-09      
                   3.127e-09        8.284e-09       -1.020e-05      
                  -1.224e-13        1.014e-21        1.950e-09      
                   1.076e-08        1.000e-09        6.479e-09      
                  -2.839e-05       -1.216e-05       -1.759e-13      
                  -7.993e-14       -2.559e-13        2.120e-21      
                    25.0000        1               
  5.595e-09        8.284e-09        5.157e-09        6.720e-09      
                   3.127e-09        8.284e-09       -1.020e-05      
                  -1.224e-13        1.014e-21        1.950e-09      
                   1.076e-08        1.000e-09        6.479e-09      
                  -2.842e-05       -1.216e-05       -1.760e-13      
                  -7.994e-14       -2.559e-13        2.120e-21      
                    25.0000        1               
  5.600e-09        8.284e-09        5.157e-09        6.720e-09      
                   3.127e-09        8.284e-09       -1.020e-05      
                  -1.224e-13        1.014e-21        1.950e-09      
                   1.076e-08        1.000e-09        6.483e-09      
                  -2.845e-05       -1.215e-05       -1.760e-13      
                  -7.994e-14       -2.559e-13        2.120e-21      
                    25.0000        1               
  5.605e-09        8.284e-09        5.157e-09        6.721e-09      
                   3.127e-09        8.284e-09       -1.021e-05      
                  -1.225e-13        1.015e-21        1.950e-09      
                   1.076e-08        1.000e-09        6.486e-09      
                  -2.849e-05       -1.215e-05       -1.761e-13      
                  -7.995e-14       -2.560e-13        2.121e-21      
                    25.0000        1               
  5.610e-09        8.284e-09        5.157e-09        6.721e-09      
                   3.127e-09        8.284e-09       -1.020e-05      
                  -1.223e-13        1.014e-21        1.950e-09      
                   1.076e-08        1.000e-09        6.486e-09      
                  -2.848e-05       -1.213e-05       -1.760e-13      
                  -7.987e-14       -2.559e-13        2.120e-21      
                    25.0000        1               
  5.615e-09        8.284e-09        5.157e-09        6.720e-09      
                   3.127e-09        8.284e-09       -1.020e-05      
                  -1.224e-13        1.014e-21        1.950e-09      
                   1.076e-08        1.000e-09        6.485e-09      
                  -2.853e-05       -1.214e-05       -1.761e-13      
                  -7.990e-14       -2.560e-13        2.121e-21      
                    25.0000        1               
  5.620e-09        8.284e-09        5.157e-09        6.721e-09      
                   3.127e-09        8.284e-09       -1.020e-05      
                  -1.225e-13        1.014e-21        1.950e-09      
                   1.076e-08        1.000e-09        6.486e-09      
                  -2.856e-05       -1.215e-05       -1.760e-13      
                  -7.994e-14       -2.560e-13        2.120e-21      
                    25.0000        1               
  5.625e-09        8.284e-09        5.157e-09        6.721e-09      
                   3.127e-09        8.284e-09       -1.020e-05      
                  -1.224e-13        1.014e-21        1.950e-09      
                   1.076e-08        1.000e-09        6.484e-09      
                  -2.858e-05       -1.215e-05       -1.761e-13      
                  -7.994e-14       -2.561e-13        2.121e-21      
                    25.0000        1               
  5.630e-09        8.284e-09        5.157e-09        6.721e-09      
                   3.127e-09        8.284e-09       -1.020e-05      
                  -1.224e-13        1.014e-21        1.950e-09      
                   1.076e-08        1.000e-09        6.485e-09      
                  -2.861e-05       -1.215e-05       -1.761e-13      
                  -7.994e-14       -2.561e-13        2.121e-21      
                    25.0000        1               
  5.635e-09        8.284e-09        5.157e-09        6.720e-09      
                   3.127e-09        8.284e-09       -1.020e-05      
                  -1.224e-13        1.014e-21        1.950e-09      
                   1.076e-08        1.000e-09        6.484e-09      
                  -2.864e-05       -1.215e-05       -1.760e-13      
                  -7.994e-14       -2.559e-13        2.120e-21      
                    25.0000        1               
  5.640e-09        8.284e-09        5.157e-09        6.721e-09      
                   3.127e-09        8.284e-09       -1.020e-05      
                  -1.224e-13        1.014e-21        1.950e-09      
                   1.076e-08        1.000e-09        6.484e-09      
                  -2.867e-05       -1.215e-05       -1.761e-13      
                  -7.994e-14       -2.561e-13        2.121e-21      
                    25.0000        1               
  5.645e-09        8.284e-09        5.157e-09        6.721e-09      
                   3.127e-09        8.284e-09       -1.020e-05      
                  -1.224e-13        1.014e-21        1.950e-09      
                   1.076e-08        1.000e-09        6.484e-09      
                  -2.870e-05       -1.215e-05       -1.760e-13      
                  -7.994e-14       -2.559e-13        2.120e-21      
                    25.0000        1               
  5.650e-09        8.284e-09        5.157e-09        6.721e-09      
                   3.127e-09        8.284e-09       -1.020e-05      
                  -1.224e-13        1.014e-21        1.950e-09      
                   1.075e-08        1.000e-09        6.485e-09      
                  -2.872e-05       -1.215e-05       -1.759e-13      
                  -7.994e-14       -2.558e-13        2.119e-21      
                    25.0000        1               
  5.655e-09        8.284e-09        5.157e-09        6.721e-09      
                   3.127e-09        8.284e-09       -1.020e-05      
                  -1.224e-13        1.014e-21        1.950e-09      
                   1.076e-08        1.000e-09        6.485e-09      
                  -2.875e-05       -1.213e-05       -1.761e-13      
                  -7.986e-14       -2.559e-13        2.120e-21      
                    25.0000        1               
  5.660e-09        8.284e-09        5.157e-09        6.721e-09      
                   3.127e-09        8.284e-09       -1.020e-05      
                  -1.224e-13        1.014e-21        1.950e-09      
                   1.076e-08        1.000e-09        6.485e-09      
                  -2.876e-05       -1.214e-05       -1.760e-13      
                  -7.990e-14       -2.559e-13        2.120e-21      
                    25.0000        1               
  5.665e-09        8.284e-09        5.157e-09        6.720e-09      
                   3.127e-09        8.284e-09       -1.020e-05      
                  -1.224e-13        1.014e-21        1.950e-09      
                   1.076e-08        1.000e-09        6.483e-09      
                  -2.881e-05       -1.215e-05       -1.760e-13      
                  -7.995e-14       -2.559e-13        2.120e-21      
                    25.0000        1               
  5.670e-09        8.284e-09        5.157e-09        6.721e-09      
                   3.127e-09        8.284e-09       -1.020e-05      
                  -1.224e-13        1.014e-21        1.950e-09      
                   1.075e-08        1.000e-09        6.484e-09      
                  -2.885e-05       -1.215e-05       -1.760e-13      
                  -7.995e-14       -2.559e-13        2.120e-21      
                    25.0000        1               
  5.675e-09        8.284e-09        5.157e-09        6.720e-09      
                   3.127e-09        8.284e-09       -1.021e-05      
                  -1.225e-13        1.015e-21        1.950e-09      
                   1.076e-08        1.000e-09        6.486e-09      
                  -2.888e-05       -1.215e-05       -1.761e-13      
                  -7.995e-14       -2.560e-13        2.121e-21      
                    25.0000        1               
  5.680e-09        8.284e-09        5.157e-09        6.721e-09      
                   3.127e-09        8.284e-09       -1.020e-05      
                  -1.224e-13        1.014e-21        1.950e-09      
                   1.076e-08        1.000e-09        6.485e-09      
                  -2.889e-05       -1.215e-05       -1.761e-13      
                  -7.994e-14       -2.560e-13        2.121e-21      
                    25.0000        1               
  5.685e-09        8.284e-09        5.157e-09        6.721e-09      
                   3.127e-09        8.284e-09       -1.020e-05      
                  -1.224e-13        1.014e-21        1.950e-09      
                   1.075e-08        1.000e-09        6.479e-09      
                  -2.893e-05       -1.216e-05       -1.760e-13      
                  -7.994e-14       -2.559e-13        2.120e-21      
                    25.0000        1               
  5.690e-09        8.284e-09        5.157e-09        6.720e-09      
                   3.127e-09        8.284e-09       -1.020e-05      
                  -1.224e-13        1.014e-21        1.950e-09      
                   1.076e-08        1.000e-09        6.485e-09      
                  -2.894e-05       -1.213e-05       -1.760e-13      
                  -7.987e-14       -2.559e-13        2.120e-21      
                    25.0000        1               
  5.695e-09        8.284e-09        5.157e-09        6.721e-09      
                   3.127e-09        8.284e-09       -1.020e-05      
                  -1.224e-13        1.014e-21        1.950e-09      
                   1.075e-08        1.000e-09        6.486e-09      
                  -2.898e-05       -1.214e-05       -1.759e-13      
                  -7.990e-14       -2.558e-13        2.119e-21      
                    25.0000        1               
  5.700e-09        8.284e-09        5.157e-09        6.721e-09      
                   3.127e-09        8.284e-09       -1.020e-05      
                  -1.225e-13        1.014e-21        1.950e-09      
                   1.076e-08        1.000e-09        6.484e-09      
                  -2.900e-05       -1.215e-05       -1.761e-13      
                  -7.994e-14       -2.561e-13        2.121e-21      
                    25.0000        1               
  5.705e-09        8.284e-09        5.157e-09        6.721e-09      
                   3.127e-09        8.284e-09       -1.020e-05      
                  -1.223e-13        1.014e-21        1.950e-09      
                   1.075e-08        1.000e-09        6.483e-09      
                  -2.903e-05       -1.214e-05       -1.759e-13      
                  -7.987e-14       -2.558e-13        2.119e-21      
                    25.0000        1               
  5.710e-09        8.284e-09        5.157e-09        6.721e-09      
                   3.127e-09        8.284e-09       -1.020e-05      
                  -1.224e-13        1.014e-21        1.950e-09      
                   1.076e-08        1.000e-09        6.484e-09      
                  -2.907e-05       -1.215e-05       -1.761e-13      
                  -7.994e-14       -2.561e-13        2.121e-21      
                    25.0000        1               
  5.715e-09        8.284e-09        5.157e-09        6.720e-09      
                   3.127e-09        8.284e-09       -1.020e-05      
                  -1.224e-13        1.014e-21        1.950e-09      
                   1.076e-08        1.000e-09        6.485e-09      
                  -2.909e-05       -1.215e-05       -1.760e-13      
                  -7.994e-14       -2.559e-13        2.120e-21      
                    25.0000        1               
  5.720e-09        8.284e-09        5.157e-09        6.721e-09      
                   3.127e-09        8.284e-09       -1.020e-05      
                  -1.224e-13        1.014e-21        1.950e-09      
                   1.075e-08        1.000e-09        6.484e-09      
                  -2.913e-05       -1.215e-05       -1.760e-13      
                  -7.994e-14       -2.559e-13        2.120e-21      
                    25.0000        1               
  5.725e-09        8.284e-09        5.157e-09        6.720e-09      
                   3.127e-09        8.284e-09       -1.020e-05      
                  -1.224e-13        1.014e-21        1.950e-09      
                   1.076e-08        1.000e-09        6.483e-09      
                  -2.914e-05       -1.214e-05       -1.761e-13      
                  -7.986e-14       -2.559e-13        2.120e-21      
                    25.0000        1               
  5.730e-09        8.284e-09        5.157e-09        6.720e-09      
                   3.127e-09        8.284e-09       -1.019e-05      
                  -1.223e-13        1.013e-21        1.950e-09      
                   1.076e-08        1.000e-09        6.485e-09      
                  -2.916e-05       -1.213e-05       -1.760e-13      
                  -7.986e-14       -2.559e-13        2.120e-21      
                    25.0000        1               
  5.735e-09        8.284e-09        5.157e-09        6.721e-09      
                   3.127e-09        8.284e-09       -1.020e-05      
                  -1.224e-13        1.014e-21        1.950e-09      
                   1.076e-08        1.000e-09        6.484e-09      
                  -2.920e-05       -1.215e-05       -1.762e-13      
                  -7.993e-14       -2.561e-13        2.122e-21      
                    25.0000        1               
  5.740e-09        8.284e-09        5.157e-09        6.721e-09      
                   3.127e-09        8.284e-09       -1.020e-05      
                  -1.224e-13        1.014e-21        1.950e-09      
                   1.076e-08        1.000e-09        6.478e-09      
                  -2.924e-05       -1.216e-05       -1.761e-13      
                  -7.992e-14       -2.560e-13        2.121e-21      
                    25.0000        1               
  5.745e-09        8.284e-09        5.157e-09        6.720e-09      
                   3.127e-09        8.284e-09       -1.020e-05      
                  -1.223e-13        1.013e-21        1.950e-09      
                   1.076e-08        1.000e-09        6.484e-09      
                  -2.926e-05       -1.213e-05       -1.759e-13      
                  -7.984e-14       -2.558e-13        2.119e-21      
                    25.0000        1               
  5.750e-09        8.284e-09        5.157e-09        6.720e-09      
                   3.127e-09        8.284e-09       -1.020e-05      
                  -1.224e-13        1.014e-21        1.950e-09      
                   1.076e-08        1.000e-09        6.485e-09      
                  -2.929e-05       -1.213e-05       -1.759e-13      
                  -7.984e-14       -2.558e-13        2.119e-21      
                    25.0000        1               
  5.755e-09        8.284e-09        5.157e-09        6.720e-09      
                   3.127e-09        8.284e-09       -1.020e-05      
                  -1.224e-13        1.014e-21        1.950e-09      
                   1.076e-08        1.000e-09        6.485e-09      
                  -2.933e-05       -1.214e-05       -1.760e-13      
                  -7.988e-14       -2.558e-13        2.119e-21      
                    25.0000        1               
  5.760e-09        8.284e-09        5.157e-09        6.721e-09      
                   3.127e-09        8.284e-09       -1.020e-05      
                  -1.223e-13        1.014e-21        1.950e-09      
                   1.076e-08        1.000e-09        6.486e-09      
                  -2.935e-05       -1.214e-05       -1.760e-13      
                  -7.991e-14       -2.560e-13        2.120e-21      
                    25.0000        1               
  5.765e-09        8.284e-09        5.157e-09        6.721e-09      
                   3.127e-09        8.284e-09       -1.020e-05      
                  -1.224e-13        1.014e-21        1.950e-09      
                   1.076e-08        1.000e-09        6.485e-09      
                  -2.937e-05       -1.213e-05       -1.761e-13      
                  -7.987e-14       -2.560e-13        2.121e-21      
                    25.0000        1               
  5.770e-09        8.284e-09        5.157e-09        6.721e-09      
                   3.127e-09        8.284e-09       -1.020e-05      
                  -1.224e-13        1.014e-21        1.950e-09      
                   1.076e-08        1.000e-09        6.484e-09      
                  -2.941e-05       -1.214e-05       -1.761e-13      
                  -7.991e-14       -2.560e-13        2.121e-21      
                    25.0000        1               
  5.775e-09        8.284e-09        5.157e-09        6.721e-09      
                   3.127e-09        8.284e-09       -1.020e-05      
                  -1.224e-13        1.014e-21        1.950e-09      
                   1.076e-08        1.000e-09        6.479e-09      
                  -2.944e-05       -1.215e-05       -1.761e-13      
                  -7.990e-14       -2.560e-13        2.121e-21      
                    25.0000        1               
  5.780e-09        8.284e-09        5.157e-09        6.721e-09      
                   3.127e-09        8.284e-09       -1.019e-05      
                  -1.223e-13        1.013e-21        1.950e-09      
                   1.075e-08        1.000e-09        6.486e-09      
                  -2.947e-05       -1.214e-05       -1.759e-13      
                  -7.989e-14       -2.558e-13        2.119e-21      
                    25.0000        1               
  5.785e-09        8.284e-09        5.157e-09        6.721e-09      
                   3.127e-09        8.284e-09       -1.020e-05      
                  -1.224e-13        1.014e-21        1.950e-09      
                   1.076e-08        1.000e-09        6.479e-09      
                  -2.949e-05       -1.215e-05       -1.761e-13      
                  -7.989e-14       -2.559e-13        2.120e-21      
                    25.0000        1               
  5.790e-09        8.284e-09        5.157e-09        6.721e-09      
                   3.127e-09        8.284e-09       -1.020e-05      
                  -1.224e-13        1.014e-21        1.950e-09      
                   1.076e-08        1.000e-09        6.484e-09      
                  -2.954e-05       -1.214e-05       -1.761e-13      
                  -7.988e-14       -2.560e-13        2.121e-21      
                    25.0000        1               
  5.795e-09        8.284e-09        5.157e-09        6.721e-09      
                   3.127e-09        8.284e-09       -1.020e-05      
                  -1.224e-13        1.014e-21        1.950e-09      
                   1.075e-08        1.000e-09        6.479e-09      
                  -2.957e-05       -1.215e-05       -1.759e-13      
                  -7.985e-14       -2.558e-13        2.119e-21      
                    25.0000        1               
  5.800e-09        8.284e-09        5.157e-09        6.720e-09      
                   3.127e-09        8.284e-09       -1.020e-05      
                  -1.224e-13        1.014e-21        1.950e-09      
                   1.076e-08        1.000e-09        6.485e-09      
                  -2.959e-05       -1.213e-05       -1.760e-13      
                  -7.986e-14       -2.558e-13        2.119e-21      
                    25.0000        1               
