$DATA1 SOURCE='HSPICE' VERSION='O-2018.09-2 linux64' PARAM_COUNT=1
$OPTION MEASFORM=1
.TITLE '.title delay__en__lh__out__lh__acq_1'
index cin__en__lh_trig cin__en__lh_targ cin__en__lh_q tin__en__lh_trig tin__en__lh_targ tout__out__lh_trig tout__out__lh_targ cap_energy__out__lh_vp0 cap_energy__out__lh_vp1 cap_energy__out__lh_vn0 cap_energy__out__lh_vn1 delay__en__lh__out__lh_trig delay__en__lh__out__lh_targ energy1__en__lh__out__lh__vdd_vdd_harness_v energy1__en__lh__out__lh__vdd_vdd_harness_q energy__en__lh__out__lh_vdd_harness_v energy__en__lh__out__lh_vdd_harness_q leakage_power1__vdd_vdd_harness_v leakage_power1__vdd_vdd_harness_i leakage_power2__vdd_vdd_harness_v leakage_power2__vdd_vdd_harness_i temper alter#
   1.0000000  1.062500e-11  2.187500e-11 -2.976478e-15  1.125000e-11  2.125000e-11    failed  5.299319e-11    0.9879455    1.1999994    0.    0.  1.625000e-11    failed    1.2000000 -3.725051e-15    1.2000000 -3.725051e-15    1.2000000 -3.857235e-10    1.2000000 -2.186726e-10    0. 1
   2.0000000  1.062500e-11  2.187500e-11 -2.977229e-15  1.125000e-11  2.125000e-11    failed  5.793427e-11    0.9879455    1.1999983    0.    0.  1.625000e-11    failed    1.2000000 -4.538143e-15    1.2000000 -4.538143e-15    1.2000000  9.844419e-11    1.2000000  3.789205e-10    0. 1
   3.0000000  1.062500e-11  2.187500e-11 -2.978318e-15  1.125000e-11  2.125000e-11    failed  7.508956e-11    0.9879455    1.1999998    0.    0.  1.625000e-11    failed    1.2000000 -7.205361e-15    1.2000000 -7.205361e-15    1.2000000  1.521267e-10    1.2000000 -1.321075e-10    0. 1
   4.0000000  1.062500e-11  2.187500e-11 -2.978943e-15  1.125000e-11  2.125000e-11    failed  1.097392e-10    0.9879455    1.1999999    0.    0.  1.625000e-11    failed    1.2000000 -1.252565e-14    1.2000000 -1.252565e-14    1.2000000 -1.500983e-10    1.2000000 -7.120933e-11    0. 1
   5.0000000  1.062500e-11  2.187500e-11 -2.979252e-15  1.125000e-11  2.125000e-11    failed  1.585106e-10    0.9879455    1.1999999    0.    0.  1.625000e-11    failed    1.2000000 -2.075131e-14    1.2000000 -2.075131e-14    1.2000000 -5.171981e-11    1.2000000 -5.454172e-11    0. 1
   6.0000000  2.704590e-11  3.338721e-10 -3.739496e-15  4.409180e-11  3.168262e-10    failed  2.604837e-10    0.9879455    1.2000002    0.    0.  1.804590e-10    failed    1.2000000 -3.760338e-15    1.2000000 -3.760338e-15    1.2000000 -6.828605e-09    1.2000000  6.150043e-10    0. 1
   7.0000000  2.704590e-11  3.338721e-10 -3.739942e-15  4.409180e-11  3.168262e-10    failed  2.651365e-10    0.9879455    1.1999997    0.    0.  1.804590e-10    failed    1.2000000 -4.530344e-15    1.2000000 -4.530344e-15    1.2000000  4.764572e-10    1.2000000 -1.062715e-09    0. 1
   8.0000000  2.704590e-11  3.338721e-10 -3.751286e-15  4.409180e-11  3.168262e-10    failed  2.819017e-10    0.9879455    1.1999997    0.    0.  1.804590e-10    failed    1.2000000 -7.289895e-15    1.2000000 -7.289895e-15    1.2000000  5.462538e-09    1.2000000 -6.328048e-09    0. 1
   9.0000000  2.704590e-11  3.338721e-10 -3.766785e-15  4.409180e-11  3.168262e-10    failed  3.140493e-10    0.9879455    1.1999999    0.    0.  1.804590e-10    failed    1.2000000 -1.250229e-14    1.2000000 -1.250229e-14    1.2000000 -2.189157e-10    1.2000000 -4.970374e-10    0. 1
  10.0000000  2.704590e-11  3.338721e-10 -3.778579e-15  4.409180e-11  3.168262e-10    failed  3.639008e-10    0.9879455    1.1999999    0.    0.  1.804590e-10    failed    1.2000000 -2.073663e-14    1.2000000 -2.073663e-14    1.2000000 -4.014074e-10    1.2000000  7.631587e-10    0. 1
  11.0000000  8.468686e-11  1.429050e-09 -3.733585e-15  1.593737e-10  1.354364e-09    failed  8.631960e-10    0.9879455    1.1999997    0.    0.  7.568686e-10    failed    1.2000000 -5.630631e-15    1.2000000 -5.630631e-15    1.2000000 -1.323935e-09    1.2000000 -2.269823e-09    0. 1
  12.0000000  8.468686e-11  1.429050e-09 -3.733637e-15  1.593737e-10  1.354364e-09    failed  8.711353e-10    0.9879455    1.1999997    0.    0.  7.568686e-10    failed    1.2000000 -6.414954e-15    1.2000000 -6.414954e-15    1.2000000  6.286569e-10    1.2000000 -1.552798e-10    0. 1
  13.0000000  8.468686e-11  1.429050e-09 -3.733384e-15  1.593737e-10  1.354364e-09    failed  8.932202e-10    0.9879455    1.2000006    0.    0.  7.568686e-10    failed    1.2000000 -9.141682e-15    1.2000000 -9.141682e-15    1.2000000 -6.907399e-10    1.2000000  1.496375e-09    0. 1
  14.0000000  8.468686e-11  1.429050e-09 -3.732156e-15  1.593737e-10  1.354364e-09    failed  9.291360e-10    0.9879455    1.2000000    0.    0.  7.568686e-10    failed    1.2000000 -1.446337e-14    1.2000000 -1.446337e-14    1.2000000 -1.600781e-10    1.2000000  3.549682e-10    0. 1
  15.0000000  8.468686e-11  1.429050e-09 -3.737875e-15  1.593737e-10  1.354364e-09    failed  9.783620e-10    0.9879455    1.1999999    0.    0.  7.568686e-10    failed    1.2000000 -2.250520e-14    1.2000000 -2.250520e-14    1.2000000 -3.575456e-09    1.2000000 -1.916223e-09    0. 1
  16.0000000  1.947606e-10  3.520451e-09 -3.735971e-15  3.795211e-10  3.335690e-09    failed  1.949855e-09    0.9879455    1.2000006    0.    0.  1.857606e-09    failed    1.2000000 -1.021226e-14    1.2000000 -1.021226e-14    1.2000000 -2.109730e-09    1.2000000  7.385874e-11    0. 1
  17.0000000  1.947606e-10  3.520451e-09 -3.735207e-15  3.795211e-10  3.335690e-09    failed  1.964165e-09    0.9879455    1.1999999    0.    0.  1.857606e-09    failed    1.2000000 -1.106250e-14    1.2000000 -1.106250e-14    1.2000000 -6.323748e-11    1.2000000 -6.593874e-11    0. 1
  18.0000000  1.947606e-10  3.520451e-09 -3.738190e-15  3.795211e-10  3.335690e-09    failed  1.996906e-09    0.9879455    1.1999997    0.    0.  1.857606e-09    failed    1.2000000 -1.377624e-14    1.2000000 -1.377624e-14    1.2000000  6.441929e-10    1.2000000 -2.186973e-09    0. 1
  19.0000000  1.947606e-10  3.520451e-09 -3.732178e-15  3.795211e-10  3.335690e-09    failed  2.042358e-09    0.9879455    1.2000000    0.    0.  1.857606e-09    failed    1.2000000 -1.907731e-14    1.2000000 -1.907731e-14    1.2000000 -6.565771e-11    1.2000000 -6.283027e-11    0. 1
  20.0000000  1.947606e-10  3.520451e-09 -3.734643e-15  3.795211e-10  3.335690e-09    failed  2.097779e-09    0.9879455    1.1999999    0.    0.  1.857606e-09    failed    1.2000000 -2.718649e-14    1.2000000 -2.718649e-14    1.2000000 -2.182820e-09    1.2000000 -1.046158e-09    0. 1
  21.0000000  3.662500e-10  6.778750e-09 -3.733667e-15  7.225000e-10  6.422500e-09    failed  3.620114e-09    0.9879455    1.2000002    0.    0.  3.572500e-09    failed    1.2000000 -1.797281e-14    1.2000000 -1.797281e-14    1.2000000  1.084062e-09    1.2000000 -4.030222e-10    0. 1
  22.0000000  3.662500e-10  6.778750e-09 -3.732594e-15  7.225000e-10  6.422500e-09    failed  3.636220e-09    0.9879455    1.1999999    0.    0.  3.572500e-09    failed    1.2000000 -1.881627e-14    1.2000000 -1.881627e-14    1.2000000 -6.977116e-11    1.2000000 -6.982360e-11    0. 1
  23.0000000  3.662500e-10  6.778750e-09 -3.735029e-15  7.225000e-10  6.422500e-09    failed  3.680693e-09    0.9879455    1.2000003    0.    0.  3.572500e-09    failed    1.2000000 -2.152663e-14    1.2000000 -2.152663e-14    1.2000000 -3.288096e-10    1.2000000  1.171150e-09    0. 1
  24.0000000  3.662500e-10  6.778750e-09 -3.733896e-15  7.225000e-10  6.422500e-09    failed  3.739217e-09    0.9879455    1.1999995    0.    0.  3.572500e-09    failed    1.2000000 -2.678022e-14    1.2000000 -2.678022e-14    1.2000000 -7.717103e-11    1.2000000  1.797564e-10    0. 1
  25.0000000  3.662500e-10  6.778750e-09 -3.733877e-15  7.225000e-10  6.422500e-09    failed  3.811712e-09    0.9879455    1.2000002    0.    0.  3.572500e-09    failed    1.2000000 -3.499801e-14    1.2000000 -3.499801e-14    1.2000000 -2.045639e-10    1.2000000 -5.876830e-11    0. 1
