$DATA1 SOURCE='HSPICE' VERSION='O-2018.09-2 linux64' PARAM_COUNT=1
$OPTION MEASFORM=1
.TITLE '.title delay__c__lh__out__hl__acq_1'
index cin__c__lh_trig cin__c__lh_targ cin__c__lh_q tin__c__lh_trig tin__c__lh_targ tout__out__hl_trig tout__out__hl_targ cap_energy__out__hl_vp0 cap_energy__out__hl_vp1 cap_energy__out__hl_vn0 cap_energy__out__hl_vn1 delay__c__lh__out__hl_trig delay__c__lh__out__hl_targ energy1__c__lh__out__hl__vdd_vdd_harness_v energy1__c__lh__out__hl__vdd_vdd_harness_q energy__c__lh__out__hl_vdd_harness_v energy__c__lh__out__hl_vdd_harness_q leakage_power1__vdd_vdd_harness_v leakage_power1__vdd_vdd_harness_i leakage_power2__vdd_vdd_harness_v leakage_power2__vdd_vdd_harness_i temper alter#
   1.0000000  1.062500e-11  2.187500e-11 -1.892414e-15  1.125000e-11  2.125000e-11    failed    failed  7.929832e-02    0.2037114    0.    0.  1.625000e-11    failed    1.2000000    0.    1.2000000    0.    1.2000000  5.697155e-23    1.2000000 -8.854978e-22    0. 1
   2.0000000  1.062500e-11  2.187500e-11 -1.920794e-15  1.125000e-11  2.125000e-11    failed    failed  7.929831e-02    0.1794877    0.    0.  1.625000e-11    failed    1.2000000    0.    1.2000000    0.    1.2000000 -2.463062e-21    1.2000000 -2.427596e-21    0. 1
   3.0000000  1.062500e-11  2.187500e-11 -1.970965e-15  1.125000e-11  2.125000e-11    failed    failed  7.929831e-02    0.1388327    0.    0.  1.625000e-11    failed    1.2000000    0.    1.2000000    0.    1.2000000 -3.323830e-21    1.2000000 -3.002521e-21    0. 1
   4.0000000  1.062500e-11  2.187500e-11 -1.997873e-15  1.125000e-11  2.125000e-11    failed    failed  7.929831e-02    0.1128499    0.    0.  1.625000e-11    failed    1.2000000    0.    1.2000000    0.    1.2000000 -1.341946e-21    1.2000000 -1.980324e-21    0. 1
   5.0000000  1.062500e-11  2.187500e-11 -2.013200e-15  1.125000e-11  2.125000e-11    failed    failed  7.929831e-02  9.927222e-02    0.    0.  1.625000e-11    failed    1.2000000    0.    1.2000000    0.    1.2000000 -3.608073e-21    1.2000000 -3.164699e-21    0. 1
   6.0000000  2.704590e-11  3.338721e-10 -1.934616e-15  4.409180e-11  3.168262e-10    failed    failed  7.929832e-02    0.2037103    0.    0.  1.804590e-10    failed    1.2000000    0.    1.2000000    0.    1.2000000  1.340139e-21    1.2000000 -5.814413e-22    0. 1
   7.0000000  2.704590e-11  3.338721e-10 -1.970139e-15  4.409180e-11  3.168262e-10    failed    failed  7.929831e-02    0.1794910    0.    0.  1.804590e-10    failed    1.2000000  1.370599e-28    1.2000000  1.370599e-28    1.2000000  2.102244e-21    1.2000000  3.855110e-22    0. 1
   8.0000000  2.704590e-11  3.338721e-10 -2.036234e-15  4.409180e-11  3.168262e-10    failed    failed  7.929831e-02    0.1388357    0.    0.  1.804590e-10    failed    1.2000000  1.562283e-28    1.2000000  1.562283e-28    1.2000000  1.932750e-21    1.2000000 -1.765802e-21    0. 1
   9.0000000  2.704590e-11  3.338721e-10 -2.077218e-15  4.409180e-11  3.168262e-10    failed    failed  7.929831e-02    0.1128514    0.    0.  1.804590e-10    failed    1.2000000    0.    1.2000000    0.    1.2000000 -2.052015e-21    1.2000000 -1.882657e-21    0. 1
  10.0000000  2.704590e-11  3.338721e-10 -2.098692e-15  4.409180e-11  3.168262e-10    failed    failed  7.929831e-02  9.927247e-02    0.    0.  1.804590e-10    failed    1.2000000  1.660932e-28    1.2000000  1.660932e-28    1.2000000 -1.343897e-21    1.2000000 -2.608882e-21    0. 1
  11.0000000  8.468686e-11  1.429050e-09 -1.936350e-15  1.593737e-10  1.354364e-09    failed    failed  7.929832e-02    0.2037016    0.    0.  7.568686e-10    failed    1.2000000  1.771472e-28    1.2000000  1.771472e-28    1.2000000 -7.832470e-21    1.2000000 -2.349503e-21    0. 1
  12.0000000  8.468686e-11  1.429050e-09 -1.973161e-15  1.593737e-10  1.354364e-09    failed    failed  7.929831e-02    0.1794815    0.    0.  7.568686e-10    failed    1.2000000    0.    1.2000000    0.    1.2000000 -3.148207e-21    1.2000000 -2.987984e-21    0. 1
  13.0000000  8.468686e-11  1.429050e-09 -2.032738e-15  1.593737e-10  1.354364e-09    failed    failed  7.929831e-02    0.1388354    0.    0.  7.568686e-10    failed    1.2000000    0.    1.2000000    0.    1.2000000 -9.096002e-22    1.2000000 -1.636805e-21    0. 1
  14.0000000  8.468686e-11  1.429050e-09 -2.077862e-15  1.593737e-10  1.354364e-09    failed    failed  7.929831e-02    0.1128523    0.    0.  7.568686e-10    failed    1.2000000    0.    1.2000000    0.    1.2000000 -3.544264e-22    1.2000000 -1.193141e-21    0. 1
  15.0000000  8.468686e-11  1.429050e-09 -2.098872e-15  1.593737e-10  1.354364e-09    failed    failed  7.929831e-02  9.927252e-02    0.    0.  7.568686e-10    failed    1.2000000  1.491737e-28    1.2000000  1.491737e-28    1.2000000 -6.613754e-21    1.2000000 -2.829552e-21    0. 1
  16.0000000  1.947606e-10  3.520451e-09 -1.936350e-15  3.795211e-10  3.335690e-09    failed    failed  7.929832e-02    0.2037077    0.    0.  1.857606e-09    failed    1.2000000  1.758515e-28    1.2000000  1.758515e-28    1.2000000 -3.317915e-21    1.2000000 -2.084272e-21    0. 1
  17.0000000  1.947606e-10  3.520451e-09 -1.968400e-15  3.795211e-10  3.335690e-09    failed    failed  7.929831e-02    0.1794839    0.    0.  1.857606e-09    failed    1.2000000    0.    1.2000000    0.    1.2000000 -6.255414e-22    1.2000000 -2.074015e-21    0. 1
  18.0000000  1.947606e-10  3.520451e-09 -2.037020e-15  3.795211e-10  3.335690e-09    failed    failed  7.929831e-02    0.1388322    0.    0.  1.857606e-09    failed    1.2000000    0.    1.2000000    0.    1.2000000 -3.015835e-22    1.2000000 -5.363596e-22    0. 1
  19.0000000  1.947606e-10  3.520451e-09 -2.074546e-15  3.795211e-10  3.335690e-09    failed    failed  7.929831e-02    0.1128487    0.    0.  1.857606e-09    failed    1.2000000    0.    1.2000000    0.    1.2000000 -1.949808e-22    1.2000000 -3.007602e-21    0. 1
  20.0000000  1.947606e-10  3.520451e-09 -2.096273e-15  3.795211e-10  3.335690e-09    failed    failed  7.929831e-02  9.927047e-02    0.    0.  1.857606e-09    failed    1.2000000  1.539831e-28    1.2000000  1.539831e-28    1.2000000 -3.136001e-21    1.2000000 -2.867248e-21    0. 1
  21.0000000  3.662500e-10  6.778750e-09 -1.931415e-15  7.225000e-10  6.422500e-09    failed    failed  7.929832e-02    0.2037031    0.    0.  3.572500e-09    failed    1.2000000  1.187889e-28    1.2000000  1.187889e-28    1.2000000 -2.343846e-21    1.2000000 -7.172090e-22    0. 1
  22.0000000  3.662500e-10  6.778750e-09 -1.973401e-15  7.225000e-10  6.422500e-09    failed    failed  7.929831e-02    0.1794857    0.    0.  3.572500e-09    failed    1.2000000    0.    1.2000000    0.    1.2000000  1.919182e-22    1.2000000 -1.701891e-21    0. 1
  23.0000000  3.662500e-10  6.778750e-09 -2.033454e-15  7.225000e-10  6.422500e-09    failed    failed  7.929831e-02    0.1388331    0.    0.  3.572500e-09    failed    1.2000000  3.333553e-28    1.2000000  3.333553e-28    1.2000000  2.695466e-21    1.2000000 -8.805940e-22    0. 1
  24.0000000  3.662500e-10  6.778750e-09 -2.077949e-15  7.225000e-10  6.422500e-09    failed    failed  7.929831e-02    0.1128499    0.    0.  3.572500e-09    failed    1.2000000    0.    1.2000000    0.    1.2000000  1.829467e-21    1.2000000 -1.860463e-21    0. 1
  25.0000000  3.662500e-10  6.778750e-09 -2.096572e-15  7.225000e-10  6.422500e-09    failed    failed  7.929831e-02  9.927124e-02    0.    0.  3.572500e-09    failed    1.2000000    0.    1.2000000    0.    1.2000000  1.820435e-22    1.2000000 -2.797043e-21    0. 1
