$DATA1 SOURCE='HSPICE' VERSION='O-2018.09-2 linux64' PARAM_COUNT=1
$OPTION MEASFORM=1
.TITLE '.title delay__en__hl__out__hl__acq_1'
index cin__en__hl_trig cin__en__hl_targ cin__en__hl_q tin__en__hl_trig tin__en__hl_targ tout__out__hl_trig tout__out__hl_targ cap_energy__out__hl_vp0 cap_energy__out__hl_vp1 cap_energy__out__hl_vn0 cap_energy__out__hl_vn1 delay__en__hl__out__hl_trig delay__en__hl__out__hl_targ energy1__en__hl__out__hl__vdd_vdd_harness_v energy1__en__hl__out__hl__vdd_vdd_harness_q energy__en__hl__out__hl_vdd_harness_v energy__en__hl__out__hl_vdd_harness_q leakage_power1__vdd_vdd_harness_v leakage_power1__vdd_vdd_harness_i leakage_power2__vdd_vdd_harness_v leakage_power2__vdd_vdd_harness_i temper alter#
   1.0000000  1.062500e-11  2.187500e-11  2.895911e-15  1.125000e-11  2.125000e-11    failed    failed    1.1999999    1.2408852    0.    0.  1.625000e-11    failed    1.2000000 -4.081700e-15    1.2000000 -4.081700e-15    1.2000000 -2.399535e-10    1.2000000 -9.248564e-11    0. 1
   2.0000000  1.062500e-11  2.187500e-11  2.896675e-15  1.125000e-11  2.125000e-11    failed    failed    1.1999999    1.2306947    0.    0.  1.625000e-11    failed    1.2000000 -4.156955e-15    1.2000000 -4.156955e-15    1.2000000 -6.075443e-11    1.2000000 -9.678861e-11    0. 1
   3.0000000  1.062500e-11  2.187500e-11  2.898233e-15  1.125000e-11  2.125000e-11    failed    failed    1.1999999    1.2160911    0.    0.  1.625000e-11    failed    1.2000000 -4.165280e-15    1.2000000 -4.165280e-15    1.2000000 -7.393297e-11    1.2000000 -8.550242e-11    0. 1
   4.0000000  1.062500e-11  2.187500e-11  2.898816e-15  1.125000e-11  2.125000e-11    failed    failed    1.1999999    1.2083305    0.    0.  1.625000e-11    failed    1.2000000 -4.172835e-15    1.2000000 -4.172835e-15    1.2000000 -8.056483e-11    1.2000000 -6.905755e-11    0. 1
   5.0000000  1.062500e-11  2.187500e-11  2.899465e-15  1.125000e-11  2.125000e-11    failed    failed    1.1999999    1.2047364    0.    0.  1.625000e-11    failed    1.2000000 -4.174349e-15    1.2000000 -4.174349e-15    1.2000000 -8.853565e-11    1.2000000 -5.785477e-11    0. 1
   6.0000000  2.704590e-11  3.338721e-10  3.769446e-15  4.409180e-11  3.168262e-10    failed    failed    1.1999999    1.2393800    0.    0.  1.804590e-10    failed    1.2000000 -4.087263e-15    1.2000000 -4.087263e-15    1.2000000 -1.702754e-09    1.2000000 -3.178791e-09    0. 1
   7.0000000  2.704590e-11  3.338721e-10  3.768424e-15  4.409180e-11  3.168262e-10    failed    failed    1.1999999    1.2319907    0.    0.  1.804590e-10    failed    1.2000000 -4.132358e-15    1.2000000 -4.132358e-15    1.2000000  7.494158e-10    1.2000000  6.158185e-10    0. 1
   8.0000000  2.704590e-11  3.338721e-10  3.766406e-15  4.409180e-11  3.168262e-10    failed    failed    1.1999999    1.2190924    0.    0.  1.804590e-10    failed    1.2000000 -4.192435e-15    1.2000000 -4.192435e-15    1.2000000  3.007658e-09    1.2000000 -5.311157e-09    0. 1
   9.0000000  2.704590e-11  3.338721e-10  3.767499e-15  4.409180e-11  3.168262e-10    failed    failed    1.1999999    1.2105323    0.    0.  1.804590e-10    failed    1.2000000 -4.225801e-15    1.2000000 -4.225801e-15    1.2000000  6.635586e-10    1.2000000  7.252883e-10    0. 1
  10.0000000  2.704590e-11  3.338721e-10  3.766741e-15  4.409180e-11  3.168262e-10    failed    failed    1.1999999    1.2060600    0.    0.  1.804590e-10    failed    1.2000000 -4.227166e-15    1.2000000 -4.227166e-15    1.2000000  6.474139e-10    1.2000000  6.924004e-10    0. 1
  11.0000000  8.468686e-11  1.429050e-09  3.768221e-15  1.593737e-10  1.354364e-09    failed    failed    1.1999999    1.2282535    0.    0.  7.568686e-10    failed    1.2000000 -5.865974e-15    1.2000000 -5.865974e-15    1.2000000 -1.721941e-09    1.2000000  3.224030e-09    0. 1
  12.0000000  8.468686e-11  1.429050e-09  3.767541e-15  1.593737e-10  1.354364e-09    failed    failed    1.1999999    1.2237052    0.    0.  7.568686e-10    failed    1.2000000 -5.906433e-15    1.2000000 -5.906433e-15    1.2000000  2.573631e-09    1.2000000  2.488733e-10    0. 1
  13.0000000  8.468686e-11  1.429050e-09  3.766746e-15  1.593737e-10  1.354364e-09    failed    failed    1.1999999    1.2156561    0.    0.  7.568686e-10    failed    1.2000000 -6.010166e-15    1.2000000 -6.010166e-15    1.2000000 -4.950871e-10    1.2000000  3.722092e-10    0. 1
  14.0000000  8.468686e-11  1.429050e-09  3.766142e-15  1.593737e-10  1.354364e-09    failed    failed    1.1999999    1.2097133    0.    0.  7.568686e-10    failed    1.2000000 -6.113512e-15    1.2000000 -6.113512e-15    1.2000000 -8.269708e-11    1.2000000  5.691604e-11    0. 1
  15.0000000  8.468686e-11  1.429050e-09  3.765526e-15  1.593737e-10  1.354364e-09    failed    failed    1.1999999    1.2061024    0.    0.  7.568686e-10    failed    1.2000000 -6.171845e-15    1.2000000 -6.171845e-15    1.2000000 -2.773541e-09    1.2000000  4.105576e-09    0. 1
  16.0000000  1.947606e-10  3.520451e-09  3.767280e-15  3.795211e-10  3.335690e-09    failed    failed    1.1999999    1.2224135    0.    0.  1.857606e-09    failed    1.2000000 -1.046065e-14    1.2000000 -1.046065e-14    1.2000000 -1.028710e-10    1.2000000 -1.028761e-10    0. 1
  17.0000000  1.947606e-10  3.520451e-09  3.768180e-15  3.795211e-10  3.335690e-09    failed    failed    1.1999999    1.2187834    0.    0.  1.857606e-09    failed    1.2000000 -1.048235e-14    1.2000000 -1.048235e-14    1.2000000 -1.029108e-10    1.2000000 -1.029149e-10    0. 1
  18.0000000  1.947606e-10  3.520451e-09  3.767285e-15  3.795211e-10  3.335690e-09    failed    failed    1.1999999    1.2126513    0.    0.  1.857606e-09    failed    1.2000000 -1.055806e-14    1.2000000 -1.055806e-14    1.2000000 -1.029884e-10    1.2000000 -1.029928e-10    0. 1
  19.0000000  1.947606e-10  3.520451e-09  3.764983e-15  3.795211e-10  3.335690e-09    failed    failed    1.1999999    1.2082546    0.    0.  1.857606e-09    failed    1.2000000 -1.061851e-14    1.2000000 -1.061851e-14    1.2000000 -1.052647e-10    1.2000000 -9.983602e-11    0. 1
  20.0000000  1.947606e-10  3.520451e-09  3.765505e-15  3.795211e-10  3.335690e-09    failed    failed    1.1999999    1.2055024    0.    0.  1.857606e-09    failed    1.2000000 -1.070309e-14    1.2000000 -1.070309e-14    1.2000000  9.810363e-09    1.2000000 -3.754144e-11    0. 1
  21.0000000  3.662500e-10  6.778750e-09  3.767713e-15  7.225000e-10  6.422500e-09    failed    failed    1.1999999    1.2184226    0.    0.  3.572500e-09    failed    1.2000000 -1.811629e-14    1.2000000 -1.811629e-14    1.2000000 -1.922542e-09    1.2000000  1.963754e-09    0. 1
  22.0000000  3.662500e-10  6.778750e-09  3.767870e-15  7.225000e-10  6.422500e-09    failed    failed    1.1999999    1.2158272    0.    0.  3.572500e-09    failed    1.2000000 -1.814147e-14    1.2000000 -1.814147e-14    1.2000000  7.985173e-10    1.2000000  2.593910e-09    0. 1
  23.0000000  3.662500e-10  6.778750e-09  3.766026e-15  7.225000e-10  6.422500e-09    failed    failed    1.1999999    1.2104396    0.    0.  3.572500e-09    failed    1.2000000 -1.833910e-14    1.2000000 -1.833910e-14    1.2000000 -1.038267e-10    1.2000000 -1.561405e-10    0. 1
  24.0000000  3.662500e-10  6.778750e-09  3.766431e-15  7.225000e-10  6.422500e-09    failed    failed    1.1999999    1.2069264    0.    0.  3.572500e-09    failed    1.2000000 -1.843189e-14    1.2000000 -1.843189e-14    1.2000000 -1.036233e-10    1.2000000 -1.047013e-10    0. 1
  25.0000000  3.662500e-10  6.778750e-09  3.765577e-15  7.225000e-10  6.422500e-09    failed    failed    1.1999999    1.2047741    0.    0.  3.572500e-09    failed    1.2000000 -1.835727e-14    1.2000000 -1.835727e-14    1.2000000 -1.038047e-10    1.2000000 -1.051979e-10    0. 1
