$DATA1 SOURCE='HSPICE' VERSION='O-2018.09-2 linux64' PARAM_COUNT=2
$OPTION MEASFORM=1
.TITLE '.title cmpw_hbm__r__lh__r__hl__acq_1'
index cmpw tin_hbm__r__lh_trig tin_hbm__r__lh_targ tout_hbm__q__hl_trig tout_hbm__q__hl_targ tout_hbm__q__hl_value cmpw_hbm__r__lh__r__hl_trig cmpw_hbm__r__lh__r__hl_targ cmpw_hbm__r__lh__r__hl_value delay_hbm__r__lh__q__hl_trig delay_hbm__r__lh__q__hl_targ delay_hbm__r__lh__q__hl_value fallback_hbm__q__hl_trig fallback_hbm__q__hl_targ fallback_hbm__q__hl_value sis_fallback1 sis_fallback1_check sis_fallback1_opt sis_passlist sis_result_hbm_1 sis_result_hbm_2 temper alter#
1    failed    failed    failed    failed    failed    failed    failed    failed    failed    failed    failed    failed    failed    failed    failed    failed    failed    failed    failed    failed    failed    0. 1
