$DATA1 SOURCE='HSPICE' VERSION='O-2018.09-2 linux64' PARAM_COUNT=1
$OPTION MEASFORM=1
.TITLE '.title delay__in__lh__out__hl__acq_1'
index cin__in__lh_trig cin__in__lh_targ cin__in__lh_q tin__in__lh_trig tin__in__lh_targ tout__out__hl_trig tout__out__hl_targ cap_energy__out__hl_vp0 cap_energy__out__hl_vp1 cap_energy__out__hl_vn0 cap_energy__out__hl_vn1 delay__in__lh__out__hl_trig delay__in__lh__out__hl_targ energy1__in__lh__out__hl__vdd_vdd_harness_v energy1__in__lh__out__hl__vdd_vdd_harness_q energy__in__lh__out__hl_vdd_harness_v energy__in__lh__out__hl_vdd_harness_q leakage_power1__vdd_vdd_harness_v leakage_power1__vdd_vdd_harness_i leakage_power2__vdd_vdd_harness_v leakage_power2__vdd_vdd_harness_i temper alter#
   1.0000000  1.062500e-11  2.187500e-11 -1.129571e-15  1.125000e-11  2.125000e-11    failed    failed -4.661308e-12    0.1117279    0.    0.  1.625000e-11    failed    1.2000000    0.    1.2000000    0.    1.2000000 -2.285424e-22    1.2000000 -1.602672e-21    0. 1
   2.0000000  1.062500e-11  2.187500e-11 -1.161617e-15  1.125000e-11  2.125000e-11    failed    failed -4.661308e-12  8.428695e-02    0.    0.  1.625000e-11    failed    1.2000000    0.    1.2000000    0.    1.2000000 -4.284971e-21    1.2000000 -3.226708e-21    0. 1
   3.0000000  1.062500e-11  2.187500e-11 -1.206565e-15  1.125000e-11  2.125000e-11    failed    failed -4.661308e-12  4.527198e-02    0.    0.  1.625000e-11    failed    1.2000000    0.    1.2000000    0.    1.2000000 -1.633101e-21    1.2000000 -2.109264e-21    0. 1
   4.0000000  1.062500e-11  2.187500e-11 -1.231070e-15  1.125000e-11  2.125000e-11    failed    failed -4.661308e-12  2.403252e-02    0.    0.  1.625000e-11    failed    1.2000000    0.    1.2000000    0.    1.2000000 -6.262321e-22    1.2000000 -1.114126e-21    0. 1
   5.0000000  1.062500e-11  2.187500e-11 -1.242228e-15  1.125000e-11  2.125000e-11    failed    failed -4.661308e-12  1.388466e-02    0.    0.  1.625000e-11    failed    1.2000000    0.    1.2000000    0.    1.2000000 -2.687849e-21    1.2000000 -3.032453e-21    0. 1
   6.0000000  2.704590e-11  3.338721e-10 -1.157847e-15  4.409180e-11  3.168262e-10    failed    failed -4.661308e-12    0.1117298    0.    0.  1.804590e-10    failed    1.2000000    0.    1.2000000    0.    1.2000000 -4.077077e-22    1.2000000 -1.425065e-21    0. 1
   7.0000000  2.704590e-11  3.338721e-10 -1.189402e-15  4.409180e-11  3.168262e-10    failed    failed -4.661308e-12  8.429000e-02    0.    0.  1.804590e-10    failed    1.2000000  1.030349e-28    1.2000000  1.030349e-28    1.2000000  4.751916e-21    1.2000000  1.888801e-21    0. 1
   8.0000000  2.704590e-11  3.338721e-10 -1.234148e-15  4.409180e-11  3.168262e-10    failed    failed -4.661308e-12  4.527374e-02    0.    0.  1.804590e-10    failed    1.2000000    0.    1.2000000    0.    1.2000000 -1.855829e-21    1.2000000 -1.887413e-21    0. 1
   9.0000000  2.704590e-11  3.338721e-10 -1.258548e-15  4.409180e-11  3.168262e-10    failed    failed -4.661308e-12  2.403346e-02    0.    0.  1.804590e-10    failed    1.2000000    0.    1.2000000    0.    1.2000000  5.189422e-21    1.2000000  2.985010e-21    0. 1
  10.0000000  2.704590e-11  3.338721e-10 -1.270248e-15  4.409180e-11  3.168262e-10    failed    failed -4.661308e-12  1.388427e-02    0.    0.  1.804590e-10    failed    1.2000000    0.    1.2000000    0.    1.2000000 -1.716757e-21    1.2000000 -1.959553e-21    0. 1
  11.0000000  8.468686e-11  1.429050e-09 -1.156123e-15  1.593737e-10  1.354364e-09    failed    failed -4.661308e-12    0.1117306    0.    0.  7.568686e-10    failed    1.2000000    0.    1.2000000    0.    1.2000000 -3.232771e-22    1.2000000 -5.937992e-22    0. 1
  12.0000000  8.468686e-11  1.429050e-09 -1.186367e-15  1.593737e-10  1.354364e-09    failed    failed -4.661308e-12  8.428926e-02    0.    0.  7.568686e-10    failed    1.2000000    0.    1.2000000    0.    1.2000000 -2.604032e-23    1.2000000 -8.559582e-22    0. 1
  13.0000000  8.468686e-11  1.429050e-09 -1.230283e-15  1.593737e-10  1.354364e-09    failed    failed -4.661308e-12  4.527277e-02    0.    0.  7.568686e-10    failed    1.2000000    0.    1.2000000    0.    1.2000000 -2.458695e-22    1.2000000 -1.218787e-21    0. 1
  14.0000000  8.468686e-11  1.429050e-09 -1.254315e-15  1.593737e-10  1.354364e-09    failed    failed -4.661308e-12  2.403289e-02    0.    0.  7.568686e-10    failed    1.2000000  1.197230e-28    1.2000000  1.197230e-28    1.2000000 -4.120386e-21    1.2000000 -3.559230e-21    0. 1
  15.0000000  8.468686e-11  1.429050e-09 -1.265831e-15  1.593737e-10  1.354364e-09    failed    failed -4.661308e-12  1.388472e-02    0.    0.  7.568686e-10    failed    1.2000000    0.    1.2000000    0.    1.2000000  1.258465e-21    1.2000000 -1.120246e-21    0. 1
  16.0000000  1.947606e-10  3.520451e-09 -1.156181e-15  3.795211e-10  3.335690e-09    failed    failed -4.661308e-12    0.1117293    0.    0.  1.857606e-09    failed    1.2000000  1.442757e-28    1.2000000  1.442757e-28    1.2000000  1.791106e-21    1.2000000 -2.090953e-21    0. 1
  17.0000000  1.947606e-10  3.520451e-09 -1.187541e-15  3.795211e-10  3.335690e-09    failed    failed -4.661308e-12  8.428714e-02    0.    0.  1.857606e-09    failed    1.2000000    0.    1.2000000    0.    1.2000000  3.923981e-21    1.2000000 -5.929523e-23    0. 1
  18.0000000  1.947606e-10  3.520451e-09 -1.233094e-15  3.795211e-10  3.335690e-09    failed    failed -4.661308e-12  4.527222e-02    0.    0.  1.857606e-09    failed    1.2000000  1.518584e-28    1.2000000  1.518584e-28    1.2000000 -3.228900e-21    1.2000000 -2.680559e-21    0. 1
  19.0000000  1.947606e-10  3.520451e-09 -1.256656e-15  3.795211e-10  3.335690e-09    failed    failed -4.661308e-12  2.403260e-02    0.    0.  1.857606e-09    failed    1.2000000    0.    1.2000000    0.    1.2000000  6.004150e-21    1.2000000 -1.448850e-21    0. 1
  20.0000000  1.947606e-10  3.520451e-09 -1.268229e-15  3.795211e-10  3.335690e-09    failed    failed -4.661308e-12  1.388456e-02    0.    0.  1.857606e-09    failed    1.2000000 -1.133421e-28    1.2000000 -1.133421e-28    1.2000000 -1.671036e-21    1.2000000 -1.584035e-21    0. 1
  21.0000000  3.662500e-10  6.778750e-09 -1.157694e-15  7.225000e-10  6.422500e-09    failed    failed -4.661308e-12    0.1117287    0.    0.  3.572500e-09    failed    1.2000000    0.    1.2000000    0.    1.2000000 -3.414281e-22    1.2000000 -1.289726e-21    0. 1
  22.0000000  3.662500e-10  6.778750e-09 -1.187769e-15  7.225000e-10  6.422500e-09    failed    failed -4.661308e-12  8.428713e-02    0.    0.  3.572500e-09    failed    1.2000000    0.    1.2000000    0.    1.2000000 -4.739500e-22    1.2000000 -9.705928e-22    0. 1
  23.0000000  3.662500e-10  6.778750e-09 -1.231906e-15  7.225000e-10  6.422500e-09    failed    failed -4.661308e-12  4.527200e-02    0.    0.  3.572500e-09    failed    1.2000000    0.    1.2000000    0.    1.2000000 -2.409039e-21    1.2000000 -2.682719e-21    0. 1
  24.0000000  3.662500e-10  6.778750e-09 -1.256983e-15  7.225000e-10  6.422500e-09    failed    failed -4.661308e-12  2.403243e-02    0.    0.  3.572500e-09    failed    1.2000000  1.177478e-28    1.2000000  1.177478e-28    1.2000000  4.356254e-21    1.2000000 -1.061085e-22    0. 1
  25.0000000  3.662500e-10  6.778750e-09 -1.268513e-15  7.225000e-10  6.422500e-09    failed    failed -4.661308e-12  1.388445e-02    0.    0.  3.572500e-09    failed    1.2000000    0.    1.2000000    0.    1.2000000 -1.691684e-21    1.2000000 -1.465124e-21    0. 1
