$DATA1 SOURCE='HSPICE' VERSION='O-2018.09-2 linux64' PARAM_COUNT=1
$OPTION MEASFORM=1
.TITLE '.title delay__clk__hl__q__hl__acq_1'
index cin__clk__hl_trig cin__clk__hl_targ cin__clk__hl_q tin__clk__hl_trig tin__clk__hl_targ tout__q__hl_trig tout__q__hl_targ cap_energy__q__hl_vp0 cap_energy__q__hl_vp1 cap_energy__q__hl_vn0 cap_energy__q__hl_vn1 delay__clk__hl__q__hl_trig delay__clk__hl__q__hl_targ energy1__clk__hl__q__hl__vdd_vdd_harness_v energy1__clk__hl__q__hl__vdd_vdd_harness_q energy__clk__hl__q__hl_vdd_harness_v energy__clk__hl__q__hl_vdd_harness_q leakage_power1__vdd_vdd_harness_v leakage_power1__vdd_vdd_harness_i leakage_power2__vdd_vdd_harness_v leakage_power2__vdd_vdd_harness_i temper alter#
   1.0000000  1.062500e-11  2.187500e-11  4.564837e-15  1.125000e-11  2.125000e-11    failed    failed    1.0213300    0.9257736    0.    0.  1.625000e-11    failed    1.2000000 -2.109274e-28    1.2000000 -2.109274e-28    1.2000000 -3.388132e-21    1.2000000 -3.388132e-21    0. 1
   2.0000000  1.062500e-11  2.187500e-11  4.576700e-15  1.125000e-11  2.125000e-11    failed    failed    1.0213299    0.9454545    0.    0.  1.625000e-11    failed    1.2000000 -2.144144e-28    1.2000000 -2.144144e-28    1.2000000 -5.895908e-21    1.2000000 -4.140243e-21    0. 1
   3.0000000  1.062500e-11  2.187500e-11  4.593567e-15  1.125000e-11  2.125000e-11    failed    failed    1.0213299    0.9768665    0.    0.  1.625000e-11    failed    1.2000000    0.    1.2000000    0.    1.2000000 -3.388132e-21    1.2000000 -3.388132e-21    0. 1
   4.0000000  1.062500e-11  2.187500e-11  4.602746e-15  1.125000e-11  2.125000e-11    failed    failed    1.0213299    0.9963936    0.    0.  1.625000e-11    failed    1.2000000 -3.060310e-28    1.2000000 -3.060310e-28    1.2000000  3.105002e-21    1.2000000 -2.845882e-21    0. 1
   5.0000000  1.062500e-11  2.187500e-11  4.607130e-15  1.125000e-11  2.125000e-11    failed    failed    1.0213299    1.0065048    0.    0.  1.625000e-11    failed    1.2000000 -2.668540e-28    1.2000000 -2.668540e-28    1.2000000 -2.605556e-21    1.2000000 -1.040404e-21    0. 1
   6.0000000  2.704590e-11  3.338721e-10  4.822567e-15  4.409180e-11  3.168262e-10    failed    failed    1.0213300    0.9258449    0.    0.  1.804590e-10    failed    1.2000000 -1.857358e-28    1.2000000 -1.857358e-28    1.2000000 -5.347141e-22    1.2000000 -1.604142e-21    0. 1
   7.0000000  2.704590e-11  3.338721e-10  4.836402e-15  4.409180e-11  3.168262e-10    failed    failed    1.0213299    0.9455249    0.    0.  1.804590e-10    failed    1.2000000 -2.914576e-28    1.2000000 -2.914576e-28    1.2000000 -3.388132e-21    1.2000000 -3.388132e-21    0. 1
   8.0000000  2.704590e-11  3.338721e-10  4.856148e-15  4.409180e-11  3.168262e-10    failed    failed    1.0213299    0.9769119    0.    0.  1.804590e-10    failed    1.2000000 -2.019540e-28    1.2000000 -2.019540e-28    1.2000000 -5.275817e-22    1.2000000 -1.582745e-21    0. 1
   9.0000000  2.704590e-11  3.338721e-10  4.866944e-15  4.409180e-11  3.168262e-10    failed    failed    1.0213299    0.9964222    0.    0.  1.804590e-10    failed    1.2000000 -3.823573e-28    1.2000000 -3.823573e-28    1.2000000    0.    1.2000000    0.    0. 1
  10.0000000  2.704590e-11  3.338721e-10  4.872115e-15  4.409180e-11  3.168262e-10    failed    failed    1.0213299    1.0065223    0.    0.  1.804590e-10    failed    1.2000000 -2.227781e-28    1.2000000 -2.227781e-28    1.2000000    0.    1.2000000    0.    0. 1
  11.0000000  8.468686e-11  1.429050e-09  4.854275e-15  1.593737e-10  1.354364e-09    failed    failed    1.0213300    0.9261169    0.    0.  7.568686e-10    failed    1.2000000 -3.356222e-28    1.2000000 -3.356222e-28    1.2000000 -2.718882e-21    1.2000000 -3.388132e-21    0. 1
  12.0000000  8.468686e-11  1.429050e-09  4.869226e-15  1.593737e-10  1.354364e-09    failed    failed    1.0213299    0.9457720    0.    0.  7.568686e-10    failed    1.2000000 -1.968919e-28    1.2000000 -1.968919e-28    1.2000000 -6.228034e-22    1.2000000 -1.868410e-21    0. 1
  13.0000000  8.468686e-11  1.429050e-09  4.890808e-15  1.593737e-10  1.354364e-09    failed    failed    1.0213299    0.9770852    0.    0.  7.568686e-10    failed    1.2000000 -2.632875e-28    1.2000000 -2.632875e-28    1.2000000  2.032948e-21    1.2000000 -2.881909e-21    0. 1
  14.0000000  8.468686e-11  1.429050e-09  4.902631e-15  1.593737e-10  1.354364e-09    failed    failed    1.0213299    0.9965286    0.    0.  7.568686e-10    failed    1.2000000 -3.477915e-28    1.2000000 -3.477915e-28    1.2000000 -2.745163e-21    1.2000000 -1.459226e-21    0. 1
  15.0000000  8.468686e-11  1.429050e-09  4.908330e-15  1.593737e-10  1.354364e-09    failed    failed    1.0213299    1.0065882    0.    0.  7.568686e-10    failed    1.2000000 -2.454645e-28    1.2000000 -2.454645e-28    1.2000000 -5.870936e-21    1.2000000 -2.286225e-21    0. 1
  16.0000000  1.947606e-10  3.520451e-09  4.892983e-15  3.795211e-10  3.335690e-09    failed    failed    1.0213300    0.9266500    0.    0.  1.857606e-09    failed    1.2000000 -2.221230e-28    1.2000000 -2.221230e-28    1.2000000  3.388132e-21    1.2000000  3.388132e-21    0. 1
  17.0000000  1.947606e-10  3.520451e-09  4.909054e-15  3.795211e-10  3.335690e-09    failed    failed    1.0213299    0.9462661    0.    0.  1.857606e-09    failed    1.2000000 -3.535084e-28    1.2000000 -3.535084e-28    1.2000000 -3.388132e-21    1.2000000 -3.388132e-21    0. 1
  18.0000000  1.947606e-10  3.520451e-09  4.932387e-15  3.795211e-10  3.335690e-09    failed    failed    1.0213299    0.9774290    0.    0.  1.857606e-09    failed    1.2000000 -2.431221e-28    1.2000000 -2.431221e-28    1.2000000 -3.388132e-21    1.2000000 -3.388132e-21    0. 1
  19.0000000  1.947606e-10  3.520451e-09  4.945392e-15  3.795211e-10  3.335690e-09    failed    failed    1.0213299    0.9967388    0.    0.  1.857606e-09    failed    1.2000000 -1.289593e-28    1.2000000 -1.289593e-28    1.2000000 -1.015484e-21    1.2000000 -2.934681e-21    0. 1
  20.0000000  1.947606e-10  3.520451e-09  4.949315e-15  3.795211e-10  3.335690e-09    failed    failed    1.0213299    1.0067191    0.    0.  1.857606e-09    failed    1.2000000 -3.399938e-28    1.2000000 -3.399938e-28    1.2000000 -7.548111e-22    1.2000000 -2.264433e-21    0. 1
  21.0000000  3.662500e-10  6.778750e-09  4.928401e-15  7.225000e-10  6.422500e-09    failed    failed    1.0213300    0.9275370    0.    0.  3.572500e-09    failed    1.2000000 -2.330562e-28    1.2000000 -2.330562e-28    1.2000000 -1.843699e-22    1.2000000 -1.348880e-21    0. 1
  22.0000000  3.662500e-10  6.778750e-09  4.945070e-15  7.225000e-10  6.422500e-09    failed    failed    1.0213299    0.9470915    0.    0.  3.572500e-09    failed    1.2000000    0.    1.2000000    0.    1.2000000    0.    1.2000000    0.    0. 1
  23.0000000  3.662500e-10  6.778750e-09  4.970429e-15  7.225000e-10  6.422500e-09    failed    failed    1.0213299    0.9780035    0.    0.  3.572500e-09    failed    1.2000000    0.    1.2000000    0.    1.2000000 -4.310709e-21    1.2000000 -1.066530e-21    0. 1
  24.0000000  3.662500e-10  6.778750e-09  4.984443e-15  7.225000e-10  6.422500e-09    failed    failed    1.0213299    0.9970912    0.    0.  3.572500e-09    failed    1.2000000 -3.103850e-28    1.2000000 -3.103850e-28    1.2000000  2.416001e-21    1.2000000  2.005008e-21    0. 1
  25.0000000  3.662500e-10  6.778750e-09  4.991355e-15  7.225000e-10  6.422500e-09    failed    failed    1.0213299    1.0069387    0.    0.  3.572500e-09    failed    1.2000000 -2.520602e-28    1.2000000 -2.520602e-28    1.2000000 -4.647785e-21    1.2000000  1.859729e-21    0. 1
