$DATA1 SOURCE='HSPICE' VERSION='O-2018.09-2 linux64' PARAM_COUNT=1
$OPTION MEASFORM=1
.TITLE '.title delay__c__hl__out__lh__acq_1'
index cin__c__hl_trig cin__c__hl_targ cin__c__hl_q tin__c__hl_trig tin__c__hl_targ tout__out__lh_trig tout__out__lh_targ cap_energy__out__lh_vp0 cap_energy__out__lh_vp1 cap_energy__out__lh_vn0 cap_energy__out__lh_vn1 delay__c__hl__out__lh_trig delay__c__hl__out__lh_targ energy1__c__hl__out__lh__vdd_vdd_harness_v energy1__c__hl__out__lh__vdd_vdd_harness_q energy__c__hl__out__lh_vdd_harness_v energy__c__hl__out__lh_vdd_harness_q leakage_power1__vdd_vdd_harness_v leakage_power1__vdd_vdd_harness_i leakage_power2__vdd_vdd_harness_v leakage_power2__vdd_vdd_harness_i temper alter#
   1.0000000  1.062500e-11  2.187500e-11  1.952336e-15  1.125000e-11  2.125000e-11    failed    failed    0.1893180  8.793453e-02    0.    0.  1.625000e-11    failed    1.2000000  1.758390e-28    1.2000000  1.758390e-28    1.2000000  1.565633e-21    1.2000000  2.358756e-22    0. 1
   2.0000000  1.062500e-11  2.187500e-11  1.972481e-15  1.125000e-11  2.125000e-11    failed    failed    0.1893180    0.1102803    0.    0.  1.625000e-11    failed    1.2000000    0.    1.2000000    0.    1.2000000 -1.830308e-22    1.2000000 -6.106973e-22    0. 1
   3.0000000  1.062500e-11  2.187500e-11  2.003561e-15  1.125000e-11  2.125000e-11    failed    failed    0.1893180    0.1447413    0.    0.  1.625000e-11    failed    1.2000000  1.771118e-28    1.2000000  1.771118e-28    1.2000000  1.517075e-21    1.2000000 -1.675863e-22    0. 1
   4.0000000  1.062500e-11  2.187500e-11  2.021817e-15  1.125000e-11  2.125000e-11    failed    failed    0.1893180    0.1649773    0.    0.  1.625000e-11    failed    1.2000000    0.    1.2000000    0.    1.2000000 -1.613235e-21    1.2000000 -1.595889e-21    0. 1
   5.0000000  1.062500e-11  2.187500e-11  2.030898e-15  1.125000e-11  2.125000e-11    failed    failed    0.1893180    0.1750540    0.    0.  1.625000e-11    failed    1.2000000    0.    1.2000000    0.    1.2000000  2.149803e-21    1.2000000 -2.746127e-22    0. 1
   6.0000000  2.704590e-11  3.338721e-10  1.939727e-15  4.409180e-11  3.168262e-10    failed    failed    0.1893180  8.264566e-02    0.    0.  1.804590e-10    failed    1.2000000    0.    1.2000000    0.    1.2000000  9.700496e-22    1.2000000 -6.150009e-22    0. 1
   7.0000000  2.704590e-11  3.338721e-10  1.960970e-15  4.409180e-11  3.168262e-10    failed    failed    0.1893180    0.1051633    0.    0.  1.804590e-10    failed    1.2000000  1.364883e-28    1.2000000  1.364883e-28    1.2000000  4.679153e-22    1.2000000 -1.011751e-21    0. 1
   8.0000000  2.704590e-11  3.338721e-10  1.995254e-15  4.409180e-11  3.168262e-10    failed    failed    0.1893180    0.1409817    0.    0.  1.804590e-10    failed    1.2000000  1.029374e-28    1.2000000  1.029374e-28    1.2000000 -1.573402e-21    1.2000000 -2.004203e-21    0. 1
   9.0000000  2.704590e-11  3.338721e-10  2.015537e-15  4.409180e-11  3.168262e-10    failed    failed    0.1893180    0.1626998    0.    0.  1.804590e-10    failed    1.2000000    0.    1.2000000    0.    1.2000000 -3.765677e-21    1.2000000 -3.062090e-21    0. 1
  10.0000000  2.704590e-11  3.338721e-10  2.025579e-15  4.409180e-11  3.168262e-10    failed    failed    0.1893180    0.1736545    0.    0.  1.804590e-10    failed    1.2000000  1.237683e-28    1.2000000  1.237683e-28    1.2000000 -6.680799e-22    1.2000000 -9.441769e-22    0. 1
  11.0000000  8.468686e-11  1.429050e-09  1.939033e-15  1.593737e-10  1.354364e-09    failed    failed    0.1893180  8.190813e-02    0.    0.  7.568686e-10    failed    1.2000000    0.    1.2000000    0.    1.2000000 -1.592373e-21    1.2000000 -1.870349e-21    0. 1
  12.0000000  8.468686e-11  1.429050e-09  1.959951e-15  1.593737e-10  1.354364e-09    failed    failed    0.1893180    0.1044735    0.    0.  7.568686e-10    failed    1.2000000    0.    1.2000000    0.    1.2000000 -9.884479e-22    1.2000000 -1.566270e-21    0. 1
  13.0000000  8.468686e-11  1.429050e-09  1.992543e-15  1.593737e-10  1.354364e-09    failed    failed    0.1893180    0.1405941    0.    0.  7.568686e-10    failed    1.2000000    0.    1.2000000    0.    1.2000000 -2.609052e-21    1.2000000 -2.428308e-21    0. 1
  14.0000000  8.468686e-11  1.429050e-09  2.011725e-15  1.593737e-10  1.354364e-09    failed    failed    0.1893180    0.1624544    0.    0.  7.568686e-10    failed    1.2000000    0.    1.2000000    0.    1.2000000  2.128567e-21    1.2000000 -1.923052e-22    0. 1
  15.0000000  8.468686e-11  1.429050e-09  2.022115e-15  1.593737e-10  1.354364e-09    failed    failed    0.1893180    0.1734914    0.    0.  7.568686e-10    failed    1.2000000 -1.162112e-28    1.2000000 -1.162112e-28    1.2000000 -1.770160e-21    1.2000000 -2.213857e-21    0. 1
  16.0000000  1.947606e-10  3.520451e-09  1.940471e-15  3.795211e-10  3.335690e-09    failed    failed    0.1893180  8.180673e-02    0.    0.  1.857606e-09    failed    1.2000000    0.    1.2000000    0.    1.2000000 -6.790924e-22    1.2000000 -1.985619e-21    0. 1
  17.0000000  1.947606e-10  3.520451e-09  1.962378e-15  3.795211e-10  3.335690e-09    failed    failed    0.1893180    0.1043432    0.    0.  1.857606e-09    failed    1.2000000    0.    1.2000000    0.    1.2000000 -2.479493e-21    1.2000000 -2.520856e-21    0. 1
  18.0000000  1.947606e-10  3.520451e-09  1.990892e-15  3.795211e-10  3.335690e-09    failed    failed    0.1893180    0.1403342    0.    0.  1.857606e-09    failed    1.2000000    0.    1.2000000    0.    1.2000000  1.199145e-21    1.2000000 -2.362853e-21    0. 1
  19.0000000  1.947606e-10  3.520451e-09  2.010754e-15  3.795211e-10  3.335690e-09    failed    failed    0.1893180    0.1622351    0.    0.  1.857606e-09    failed    1.2000000    0.    1.2000000    0.    1.2000000 -2.878181e-21    1.2000000 -2.513222e-21    0. 1
  20.0000000  1.947606e-10  3.520451e-09  2.024437e-15  3.795211e-10  3.335690e-09    failed    failed    0.1893180    0.1733530    0.    0.  1.857606e-09    failed    1.2000000    0.    1.2000000    0.    1.2000000 -2.471237e-21    1.2000000 -2.578823e-21    0. 1
  21.0000000  3.662500e-10  6.778750e-09  1.943983e-15  7.225000e-10  6.422500e-09    failed    failed    0.1893180  8.136238e-02    0.    0.  3.572500e-09    failed    1.2000000    0.    1.2000000    0.    1.2000000 -1.843256e-21    1.2000000 -1.524353e-21    0. 1
  22.0000000  3.662500e-10  6.778750e-09  1.958933e-15  7.225000e-10  6.422500e-09    failed    failed    0.1893180    0.1040044    0.    0.  3.572500e-09    failed    1.2000000    0.    1.2000000    0.    1.2000000 -1.044938e-21    1.2000000 -8.838417e-22    0. 1
  23.0000000  3.662500e-10  6.778750e-09  1.998008e-15  7.225000e-10  6.422500e-09    failed    failed    0.1893180    0.1401241    0.    0.  3.572500e-09    failed    1.2000000    0.    1.2000000    0.    1.2000000  1.516777e-21    1.2000000  5.952681e-22    0. 1
  24.0000000  3.662500e-10  6.778750e-09  2.013959e-15  7.225000e-10  6.422500e-09    failed    failed    0.1893180    0.1621178    0.    0.  3.572500e-09    failed    1.2000000    0.    1.2000000    0.    1.2000000  4.530377e-21    1.2000000 -1.590784e-21    0. 1
  25.0000000  3.662500e-10  6.778750e-09  2.031099e-15  7.225000e-10  6.422500e-09    failed    failed    0.1893180    0.1732576    0.    0.  3.572500e-09    failed    1.2000000  1.185072e-28    1.2000000  1.185072e-28    1.2000000  2.020962e-21    1.2000000 -3.341171e-22    0. 1
