 ****** HSPICE -- O-2018.09-2 linux64 (Oct 18 2018) ******                      
  Copyright (c) 1986 - 2024 by Synopsys, Inc. All Rights Reserved.              
  This software and the associated documentation are proprietary
  to Synopsys, Inc. This software may only be used in accordance
  with the terms and conditions of a written license agreement with
  Synopsys, Inc. All other use, reproduction, or distribution of
  this software is strictly prohibited.
  Input File: deck.cir                                                          
  Command line options: /proj/cad/synopsys/synopsys_2018/hspice_vO-2018.09-2/hspice/linux64/hspice deck.cir -o deck -SIS-cchar  
  **info**  the obsolete option acct is ignored
  **info**  the obsolete option nopage is ignored
 **info** *pvaI* current limit stacksize=8388608, set new limit stacksize=62914560

 **info** *pvaI* Module (mosvarcap): 2 unexpanded port, 0 init, 85 behav, 5 contrib, 53/76 expr(s)

 **info** *pvaI*        No DIS, 0/0 afCount, 0 MT, dlg, IO(0/0/0/0)

 **info** *pvaI*        0 gmdIsThreadSafe 

 **info** *pvaI*        0 const-G and 0 const-C, No switchBranch, 22 bypassOpt, 0 bus2scalar, 0 vwb

 **info** *pvaI*        set_va_exp = 80 [80.0, 704.0] set by default

 **warning** *pvaW*        variable 'fs_init' initialized but not used in RHS, deleted (/proj/cad/library/mosis/GF65_LPe/cmos10lpe_CDS_oa_dl064_11_20160415/models/YI-SM00030/Hspice/models/./ncap.va:83)

 **warning** *pvaW*                   To relax this rule, use 'setenv PVA_KEEP_VARS 1' to keep variables for probing.

 **warning** *pvaW*        variable 'fp_init' initialized but not used in RHS, deleted (/proj/cad/library/mosis/GF65_LPe/cmos10lpe_CDS_oa_dl064_11_20160415/models/YI-SM00030/Hspice/models/./ncap.va:159)

 **warning** *pvaW*        variable 'ilast' initialized but not used in RHS, deleted (/proj/cad/library/mosis/GF65_LPe/cmos10lpe_CDS_oa_dl064_11_20160415/models/YI-SM00030/Hspice/models/./ncap.va:149)

 **warning** *pvaW*        variable 'jlast' initialized but not used in RHS, deleted (/proj/cad/library/mosis/GF65_LPe/cmos10lpe_CDS_oa_dl064_11_20160415/models/YI-SM00030/Hspice/models/./ncap.va:204)

 **info** *pvaI*        generated 3 flow node(s) during compilation.

 **info** *pvaI* Module (dgmosvarcap): 2 unexpanded port, 0 init, 84 behav, 4 contrib, 53/76 expr(s)

 **info** *pvaI*        No DIS, 0/0 afCount, 0 MT, dlg, IO(0/0/0/0)

 **info** *pvaI*        0 gmdIsThreadSafe 

 **info** *pvaI*        0 const-G and 0 const-C, No switchBranch, 22 bypassOpt, 0 bus2scalar, 0 vwb

 **info** *pvaI*        set_va_exp = 80 [80.0, 704.0] set by default

 **warning** *pvaW*        variable 'fs_init' initialized but not used in RHS, deleted (/proj/cad/library/mosis/GF65_LPe/cmos10lpe_CDS_oa_dl064_11_20160415/models/YI-SM00030/Hspice/models/./dgncap.va:83)

 **warning** *pvaW*        variable 'fp_init' initialized but not used in RHS, deleted (/proj/cad/library/mosis/GF65_LPe/cmos10lpe_CDS_oa_dl064_11_20160415/models/YI-SM00030/Hspice/models/./dgncap.va:159)

 **warning** *pvaW*        variable 'ilast' initialized but not used in RHS, deleted (/proj/cad/library/mosis/GF65_LPe/cmos10lpe_CDS_oa_dl064_11_20160415/models/YI-SM00030/Hspice/models/./dgncap.va:149)

 **warning** *pvaW*        variable 'jlast' initialized but not used in RHS, deleted (/proj/cad/library/mosis/GF65_LPe/cmos10lpe_CDS_oa_dl064_11_20160415/models/YI-SM00030/Hspice/models/./dgncap.va:204)

 **warning** *pvaW*        variable 'leak' initialized but not used in RHS, deleted (/proj/cad/library/mosis/GF65_LPe/cmos10lpe_CDS_oa_dl064_11_20160415/models/YI-SM00030/Hspice/models/./dgncap.va:74)

 **info** *pvaI*        generated 3 flow node(s) during compilation.

 **info** *pvaI* Module (veripcap): 2 unexpanded port, 0 init, 86 behav, 5 contrib, 53/77 expr(s)

 **info** *pvaI*        No DIS, 0/0 afCount, 0 MT, dlg, IO(0/0/0/0)

 **info** *pvaI*        0 gmdIsThreadSafe 

 **info** *pvaI*        0 const-G and 0 const-C, No switchBranch, 22 bypassOpt, 0 bus2scalar, 0 vwb

 **info** *pvaI*        set_va_exp = 80 [80.0, 704.0] set by default

 **warning** *pvaW*        variable 'fs_init' initialized but not used in RHS, deleted (/proj/cad/library/mosis/GF65_LPe/cmos10lpe_CDS_oa_dl064_11_20160415/models/YI-SM00030/Hspice/models/./pcap.va:87)

 **warning** *pvaW*        variable 'fp_init' initialized but not used in RHS, deleted (/proj/cad/library/mosis/GF65_LPe/cmos10lpe_CDS_oa_dl064_11_20160415/models/YI-SM00030/Hspice/models/./pcap.va:163)

 **warning** *pvaW*        variable 'ilast' initialized but not used in RHS, deleted (/proj/cad/library/mosis/GF65_LPe/cmos10lpe_CDS_oa_dl064_11_20160415/models/YI-SM00030/Hspice/models/./pcap.va:153)

 **warning** *pvaW*        variable 'jlast' initialized but not used in RHS, deleted (/proj/cad/library/mosis/GF65_LPe/cmos10lpe_CDS_oa_dl064_11_20160415/models/YI-SM00030/Hspice/models/./pcap.va:208)

 **info** *pvaI*        generated 3 flow node(s) during compilation.

 **info** *pvaI* Module (havarcap): 2 unexpanded port, 0 init, 41 behav, 1 contrib, 28/38 expr(s)

 **info** *pvaI*        Has DIS(DT), 0/0 afCount, 0 MT, dlg, IO(0/0/1/0)

 **info** *pvaI*        0 gmdIsThreadSafe (DT)

 **info** *pvaI*        1 const-G and 0 const-C, No switchBranch, 22 bypassOpt, 0 bus2scalar, 0 vwb

 **info** *pvaI*        set_va_exp = 80 [80.0, 704.0] set by default

 **info** *pvaI*        generated 0 flow node(s) during compilation.

 **info** *pvaI* Module (It2_monitor): 2 unexpanded port, 0 init, 5 behav, 1 contrib, 22/1 expr(s)

 **info** *pvaI*        Has DIS(SB), 0/0 afCount, 0 MT, dlg, IO(0/1/1/1)

 **info** *pvaI*        0 gmdIsThreadSafe (SB)

 **info** *pvaI*        0 const-G and 0 const-C, Has switchBranch, 22 bypassOpt, 0 bus2scalar, 0 vwb

 **info** *pvaI*        set_va_exp = 80 [80.0, 704.0] set by default

 **info** *pvaI*        generated 0 flow node(s) during compilation.

 **info** *pvaI* Module (single_rcline): 3 unexpanded port, 0 init, 1473 behav, 5 contrib, 47/1727 expr(s)

 **info** *pvaI* p.89 (LRM 2.2) parameter 'th' used inside analog function (/proj/cad/library/mosis/GF65_LPe/cmos10lpe_CDS_oa_dl064_11_20160415/models/YI-SM00030/Hspice/models/single_rcline.va:1044)

 **info** *pvaI*        Has DIS(DT ST), 3/11 afCount, 0 MT, dlg, IO(0/0/1/0)

 **info** *pvaI*        0 gmdIsThreadSafe (DT ST)

 **info** *pvaI*        3 const-G and 0 const-C, No switchBranch, 22 bypassOpt, 0 bus2scalar, 0 vwb

 **info** *pvaI*        set_va_exp = 80 [80.0, 704.0] set by default

 **info** *pvaI*        generated 0 flow node(s) during compilation.

 **info** *pvaI* Module (single_cpw): 3 unexpanded port, 0 init, 1795 behav, 40 contrib, 72/2265 expr(s)

 **info** *pvaI* p.89 (LRM 2.2) parameter 'th' used inside analog function (/proj/cad/library/mosis/GF65_LPe/cmos10lpe_CDS_oa_dl064_11_20160415/models/YI-SM00030/Hspice/models/single_cpw.va:1130)

 **info** *pvaI*        Has DIS(DT IT ST), 17/40 afCount, 0 MT, dlg, IO(0/0/1/0)

 **info** *pvaI*        0 gmdIsThreadSafe (DT IT ST)

 **info** *pvaI*        0 const-G and 0 const-C, No switchBranch, 0 bypassOpt, 0 bus2scalar, 0 vwb

 **info** *pvaI*        set_va_exp = 80 [80.0, 704.0] set by default

 **warning** *pvaW*        variable 'Coxo_None' declared but not used in RHS, deleted (/proj/cad/library/mosis/GF65_LPe/cmos10lpe_CDS_oa_dl064_11_20160415/models/YI-SM00030/Hspice/models/single_cpw.va:178)

 **info** *pvaI*        generated 3 flow node(s) during compilation.

 **info** *pvaI* Module (coupled_rcline): 5 unexpanded port, 0 init, 1778 behav, 13 contrib, 65/2017 expr(s)

 **info** *pvaI* p.89 (LRM 2.2) parameter 'th' used inside analog function (/proj/cad/library/mosis/GF65_LPe/cmos10lpe_CDS_oa_dl064_11_20160415/models/YI-SM00030/Hspice/models/coupled_rcline.va:1094)

 **info** *pvaI*        Has DIS(ST), 5/10 afCount, 0 MT, dlg, IO(0/0/1/0)

 **info** *pvaI*        0 gmdIsThreadSafe (ST)

 **info** *pvaI*        0 const-G and 0 const-C, No switchBranch, 22 bypassOpt, 0 bus2scalar, 0 vwb

 **info** *pvaI*        set_va_exp = 80 [80.0, 704.0] set by default

 **info** *pvaI*        generated 0 flow node(s) during compilation.

 **info** *pvaI* Module (coupled_cpw): 5 unexpanded port, 0 init, 2364 behav, 90 contrib, 70/2827 expr(s)

 **info** *pvaI* p.89 (LRM 2.2) parameter 'th' used inside analog function (/proj/cad/library/mosis/GF65_LPe/cmos10lpe_CDS_oa_dl064_11_20160415/models/YI-SM00030/Hspice/models/coupled_cpw.va:1205)

 **info** *pvaI* p.89 (LRM 2.2) parameter 'd' used inside analog function (/proj/cad/library/mosis/GF65_LPe/cmos10lpe_CDS_oa_dl064_11_20160415/models/YI-SM00030/Hspice/models/coupled_cpw.va:1918)

 **info** *pvaI*        Has DIS(DT IT ST), 14/31 afCount, 0 MT, dlg, IO(0/0/1/0)

 **info** *pvaI*        0 gmdIsThreadSafe (DT IT ST)

 **info** *pvaI*        0 const-G and 0 const-C, No switchBranch, 0 bypassOpt, 0 bus2scalar, 0 vwb

 **info** *pvaI*        set_va_exp = 80 [80.0, 704.0] set by default

 **warning** *pvaW*        variable 'M0' initialized but not used in RHS, deleted (/proj/cad/library/mosis/GF65_LPe/cmos10lpe_CDS_oa_dl064_11_20160415/models/YI-SM00030/Hspice/models/coupled_cpw.va:2344)

 **info** *pvaI*        generated 6 flow node(s) during compilation.

 **info** *pvaI* #### Total 4247 line-size(s), 463/9104 expr(s), 164 contr(s), 0 init(s), 7711 behav(s), 26 port(s)

  **warning** (/proj/cad/library/mosis/GF65_LPe/cmos10lpe_CDS_oa_dl064_11_20160415/models/YI-SM00030/Hspice/models/./nfet.inc:222) Model nfet device geometries will not be checked against the limits set by lmin, lmax, wmin and wmax. To enable this check, add a period(.) to the model name(i.e. enable model selector).
  **warning** (/proj/cad/library/mosis/GF65_LPe/cmos10lpe_CDS_oa_dl064_11_20160415/models/YI-SM00030/Hspice/models/./pfet.inc:222) Model pfet device geometries will not be checked against the limits set by lmin, lmax, wmin and wmax. To enable this check, add a period(.) to the model name(i.e. enable model selector).
  **info**  the obsolete option acct is ignored
  **info**  the obsolete option nopage is ignored

 **info** IF-.ELSE condition won’t be re-calculated for each data/parameter sweep. If .data/sweep parameter assignments are used in .if condition, please use .alter as a workaround.

 Loading pVA library deck.pvadir/pvaRTL_linux64.so...
  **warning** multiple output options specified, using post
  
      
             
 Warning:'Floating bulk' occurs 1 times
 Summary of floating bulk:
 ----------------------------------------------------
 |Node                         |Device              |
 |-----------------------------+--------------------|
 |xdff_inst.n_vss_d0_noxref_pos|xdff_inst.xmmn4.main|
 ----------------------------------------------------
              
 *****************************************************************
 ******  option summary
 ******
 runlvl  = 5         bypass  = 2.0000000  
 End of pVA setup    on Wed Nov 13 14:39:40 2024	GTM/In-use: 61.0000/49.9860 MB



   *** data name = arc_data , index =     1 ***


   *** data name = arc_data , index =     2 ***


   *** data name = arc_data , index =     3 ***


   *** data name = arc_data , index =     4 ***


   *** data name = arc_data , index =     5 ***


   *** data name = arc_data , index =     6 ***


   *** data name = arc_data , index =     7 ***


   *** data name = arc_data , index =     8 ***


   *** data name = arc_data , index =     9 ***


   *** data name = arc_data , index =    10 ***


   *** data name = arc_data , index =    11 ***


   *** data name = arc_data , index =    12 ***


   *** data name = arc_data , index =    13 ***


   *** data name = arc_data , index =    14 ***


   *** data name = arc_data , index =    15 ***


   *** data name = arc_data , index =    16 ***


   *** data name = arc_data , index =    17 ***


   *** data name = arc_data , index =    18 ***


   *** data name = arc_data , index =    19 ***


   *** data name = arc_data , index =    20 ***


   *** data name = arc_data , index =    21 ***


   *** data name = arc_data , index =    22 ***


   *** data name = arc_data , index =    23 ***


   *** data name = arc_data , index =    24 ***


   *** data name = arc_data , index =    25 ***


          ***** job concluded
1****** HSPICE -- O-2018.09-2 linux64 (Oct 18 2018) ******                      
 ******  
 .title delay__r__lh__q__hl__acq_1

 ****** job statistics summary tnom=  25.000 temp=   0.000 ******
  
 ******  Machine Information  ******
 CPU:
 model name	: AMD EPYC 7F32 8-Core Processor
 cpu MHz	: 3693.170
  
 OS:
 Linux version 3.10.0-1160.119.1.el7.x86_64 (mockbuild@x86-vm-39.brew-001.prod.iad2.dc.redhat.com) (gcc version 4.8.5 20150623 (Red Hat 4.8.5-44) (GCC) ) #1 SMP Tue May 14 11:55:25 EDT 2024


  ******  HSPICE Threads Information  ******

  Command Line Threads Count :     1
  Available CPU Count        :    32
  Actual Threads Count       :     1


  ******  Circuit Statistics  ******
  # nodes       =     432 # elements   =    1300
  # resistors   =     351 # capacitors =     904 # inductors   =       0
  # mutual_inds =       0 # vccs       =       0 # vcvs        =       0
  # cccs        =       0 # ccvs       =       0 # volt_srcs   =      14
  # curr_srcs   =       0 # diodes     =       1 # bjts        =       0
  # jfets       =       0 # mosfets    =      30 # U elements  =       0
  # T elements  =       0 # W elements =       0 # B elements  =       0
  # S elements  =       0 # P elements =       0 # va device   =       0
  # vector_srcs =       0 # N elements =       0


  ******  Runtime Statistics (seconds)  ******

  analysis           time    # points   tot. iter  conv.iter
  op point           0.06           1         100
  transient          0.42     2375025        3592        1680 rev=       125
  readin             1.20
  errchk             0.06
  setup              0.00
  output             0.00


           peak memory used        343.54 megabytes
           total cpu time            1.73 seconds
           total elapsed time        6.88 seconds
           job started at     14:39:34 11/13/2024
           job ended   at     14:39:41 11/13/2024


