$DATA1 SOURCE='HSPICE' VERSION='O-2018.09-2 linux64' PARAM_COUNT=1
$OPTION MEASFORM=1
.TITLE '.title delay__r__lh__q__hl__acq_1'
index cin__r__lh_trig cin__r__lh_targ cin__r__lh_q tin__r__lh_trig tin__r__lh_targ tout__q__hl_trig tout__q__hl_targ cap_energy__q__hl_vp0 cap_energy__q__hl_vp1 cap_energy__q__hl_vn0 cap_energy__q__hl_vn1 delay__r__lh__q__hl_trig delay__r__lh__q__hl_targ energy1__r__lh__q__hl__vdd_vdd_harness_v energy1__r__lh__q__hl__vdd_vdd_harness_q energy__r__lh__q__hl_vdd_harness_v energy__r__lh__q__hl_vdd_harness_q leakage_power1__vdd_vdd_harness_v leakage_power1__vdd_vdd_harness_i leakage_power2__vdd_vdd_harness_v leakage_power2__vdd_vdd_harness_i temper alter#
   1.0000000  1.062500e-11  2.187500e-11 -2.689207e-15  1.125000e-11  2.125000e-11    failed    failed    0.9861348    1.0045164    0.    0.  1.625000e-11    failed    1.2000000 -4.654443e-28    1.2000000 -4.654443e-28    1.2000000 -3.388132e-21    1.2000000 -3.388132e-21    0. 1
   2.0000000  1.062500e-11  2.187500e-11 -2.690986e-15  1.125000e-11  2.125000e-11    failed    failed    0.9861351    1.0000442    0.    0.  1.625000e-11    failed    1.2000000 -2.997897e-28    1.2000000 -2.997897e-28    1.2000000 -5.967932e-22    1.2000000 -1.790380e-21    0. 1
   3.0000000  1.062500e-11  2.187500e-11 -2.693516e-15  1.125000e-11  2.125000e-11    failed    failed    0.9861356    0.9936364    0.    0.  1.625000e-11    failed    1.2000000 -3.167652e-28    1.2000000 -3.167652e-28    1.2000000  2.150186e-21    1.2000000 -3.257046e-22    0. 1
   4.0000000  1.062500e-11  2.187500e-11 -2.694892e-15  1.125000e-11  2.125000e-11    failed    failed    0.9861358    0.9901256    0.    0.  1.625000e-11    failed    1.2000000 -3.819730e-28    1.2000000 -3.819730e-28    1.2000000 -3.388132e-21    1.2000000 -3.388132e-21    0. 1
   5.0000000  1.062500e-11  2.187500e-11 -2.695549e-15  1.125000e-11  2.125000e-11    failed    failed    0.9861359    0.9884432    0.    0.  1.625000e-11    failed    1.2000000 -2.356824e-28    1.2000000 -2.356824e-28    1.2000000 -2.736753e-21    1.2000000 -1.433996e-21    0. 1
   6.0000000  2.704590e-11  3.338721e-10 -2.836508e-15  4.409180e-11  3.168262e-10    failed    failed    0.9861348    1.0045313    0.    0.  1.804590e-10    failed    1.2000000 -3.478645e-28    1.2000000 -3.478645e-28    1.2000000  1.982196e-21    1.2000000 -8.296745e-22    0. 1
   7.0000000  2.704590e-11  3.338721e-10 -2.837931e-15  4.409180e-11  3.168262e-10    failed    failed    0.9861351    1.0000544    0.    0.  1.804590e-10    failed    1.2000000 -2.768741e-28    1.2000000 -2.768741e-28    1.2000000 -7.129132e-22    1.2000000 -2.138740e-21    0. 1
   8.0000000  2.704590e-11  3.338721e-10 -2.839957e-15  4.409180e-11  3.168262e-10    failed    failed    0.9861356    0.9936415    0.    0.  1.804590e-10    failed    1.2000000 -1.878371e-28    1.2000000 -1.878371e-28    1.2000000 -6.047388e-21    1.2000000 -4.589635e-21    0. 1
   9.0000000  2.704590e-11  3.338721e-10 -2.841040e-15  4.409180e-11  3.168262e-10    failed    failed    0.9861358    0.9901286    0.    0.  1.804590e-10    failed    1.2000000 -4.591413e-28    1.2000000 -4.591413e-28    1.2000000 -3.388132e-21    1.2000000 -3.388132e-21    0. 1
  10.0000000  2.704590e-11  3.338721e-10 -2.841568e-15  4.409180e-11  3.168262e-10    failed    failed    0.9861359    0.9884449    0.    0.  1.804590e-10    failed    1.2000000 -3.571992e-28    1.2000000 -3.571992e-28    1.2000000 -3.388132e-21    1.2000000 -3.388132e-21    0. 1
  11.0000000  8.468686e-11  1.429050e-09 -2.843478e-15  1.593737e-10  1.354364e-09    failed    failed    0.9861348    1.0045814    0.    0.  7.568686e-10    failed    1.2000000 -2.312306e-28    1.2000000 -2.312306e-28    1.2000000 -6.900423e-21    1.2000000 -2.433865e-21    0. 1
  12.0000000  8.468686e-11  1.429050e-09 -2.844682e-15  1.593737e-10  1.354364e-09    failed    failed    0.9861351    1.0000927    0.    0.  7.568686e-10    failed    1.2000000 -1.964479e-28    1.2000000 -1.964479e-28    1.2000000 -4.400098e-21    1.2000000    0.    0. 1
  13.0000000  8.468686e-11  1.429050e-09 -2.846403e-15  1.593737e-10  1.354364e-09    failed    failed    0.9861356    0.9936626    0.    0.  7.568686e-10    failed    1.2000000 -2.061122e-28    1.2000000 -2.061122e-28    1.2000000 -2.309615e-21    1.2000000 -2.285354e-21    0. 1
  14.0000000  8.468686e-11  1.429050e-09 -2.847344e-15  1.593737e-10  1.354364e-09    failed    failed    0.9861358    0.9901398    0.    0.  7.568686e-10    failed    1.2000000 -2.193420e-28    1.2000000 -2.193420e-28    1.2000000 -2.359874e-21    1.2000000 -2.236168e-21    0. 1
  15.0000000  8.468686e-11  1.429050e-09 -2.847794e-15  1.593737e-10  1.354364e-09    failed    failed    0.9861359    0.9884515    0.    0.  7.568686e-10    failed    1.2000000 -1.566172e-28    1.2000000 -1.566172e-28    1.2000000    0.    1.2000000    0.    0. 1
  16.0000000  1.947606e-10  3.520451e-09 -2.856551e-15  3.795211e-10  3.335690e-09    failed    failed    0.9861348    1.0046805    0.    0.  1.857606e-09    failed    1.2000000    0.    1.2000000    0.    1.2000000 -3.388132e-21    1.2000000 -3.388132e-21    0. 1
  17.0000000  1.947606e-10  3.520451e-09 -2.857529e-15  3.795211e-10  3.335690e-09    failed    failed    0.9861351    1.0001681    0.    0.  1.857606e-09    failed    1.2000000 -2.313955e-28    1.2000000 -2.313955e-28    1.2000000  7.906028e-22    1.2000000  2.371808e-21    0. 1
  18.0000000  1.947606e-10  3.520451e-09 -2.858936e-15  3.795211e-10  3.335690e-09    failed    failed    0.9861356    0.9937035    0.    0.  1.857606e-09    failed    1.2000000 -1.572653e-28    1.2000000 -1.572653e-28    1.2000000    0.    1.2000000    0.    0. 1
  19.0000000  1.947606e-10  3.520451e-09 -2.859710e-15  3.795211e-10  3.335690e-09    failed    failed    0.9861358    0.9901617    0.    0.  1.857606e-09    failed    1.2000000 -2.658316e-28    1.2000000 -2.658316e-28    1.2000000 -2.566620e-21    1.2000000 -9.235960e-22    0. 1
  20.0000000  1.947606e-10  3.520451e-09 -2.860081e-15  3.795211e-10  3.335690e-09    failed    failed    0.9861359    0.9884641    0.    0.  1.857606e-09    failed    1.2000000 -1.958589e-28    1.2000000 -1.958589e-28    1.2000000 -8.268982e-22    1.2000000 -2.480695e-21    0. 1
  21.0000000  3.662500e-10  6.778750e-09 -2.867106e-15  7.225000e-10  6.422500e-09    failed    failed    0.9861348    1.0048593    0.    0.  3.572500e-09    failed    1.2000000 -1.306485e-28    1.2000000 -1.306485e-28    1.2000000    0.    1.2000000    0.    0. 1
  22.0000000  3.662500e-10  6.778750e-09 -2.867934e-15  7.225000e-10  6.422500e-09    failed    failed    0.9861351    1.0003040    0.    0.  3.572500e-09    failed    1.2000000 -2.022870e-28    1.2000000 -2.022870e-28    1.2000000 -3.555050e-21    1.2000000  1.934120e-21    0. 1
  23.0000000  3.662500e-10  6.778750e-09 -2.869141e-15  7.225000e-10  6.422500e-09    failed    failed    0.9861356    0.9937772    0.    0.  3.572500e-09    failed    1.2000000 -1.410038e-28    1.2000000 -1.410038e-28    1.2000000 -4.727132e-21    1.2000000 -8.749661e-22    0. 1
  24.0000000  3.662500e-10  6.778750e-09 -2.869815e-15  7.225000e-10  6.422500e-09    failed    failed    0.9861358    0.9902009    0.    0.  3.572500e-09    failed    1.2000000 -1.597656e-28    1.2000000 -1.597656e-28    1.2000000  4.772852e-21    1.2000000  9.570927e-22    0. 1
  25.0000000  3.662500e-10  6.778750e-09 -2.870140e-15  7.225000e-10  6.422500e-09    failed    failed    0.9861359    0.9884868    0.    0.  3.572500e-09    failed    1.2000000 -2.309865e-28    1.2000000 -2.309865e-28    1.2000000  9.920332e-22    1.2000000  2.707811e-21    0. 1
