$DATA1 SOURCE='HSPICE' VERSION='O-2018.09-2 linux64' PARAM_COUNT=1
$OPTION MEASFORM=1
.TITLE '.title delay__clk__hl__q__lh__acq_1'
index cin__clk__hl_trig cin__clk__hl_targ cin__clk__hl_q tin__clk__hl_trig tin__clk__hl_targ tout__q__lh_trig tout__q__lh_targ cap_energy__q__lh_vp0 cap_energy__q__lh_vp1 cap_energy__q__lh_vn0 cap_energy__q__lh_vn1 delay__clk__hl__q__lh_trig delay__clk__hl__q__lh_targ energy1__clk__hl__q__lh__vdd_vdd_harness_v energy1__clk__hl__q__lh__vdd_vdd_harness_q energy__clk__hl__q__lh_vdd_harness_v energy__clk__hl__q__lh_vdd_harness_q leakage_power1__vdd_vdd_harness_v leakage_power1__vdd_vdd_harness_i leakage_power2__vdd_vdd_harness_v leakage_power2__vdd_vdd_harness_i temper alter#
   1.0000000  1.062500e-11  2.187500e-11  4.539395e-15  1.125000e-11  2.125000e-11    failed    failed    1.2011105    0.9900091    0.    0.  1.625000e-11    failed    1.2000000 -3.947860e-28    1.2000000 -3.947860e-28    1.2000000 -4.302612e-21    1.2000000 -4.611958e-21    0. 1
   2.0000000  1.062500e-11  2.187500e-11  4.554261e-15  1.125000e-11  2.125000e-11    failed    failed    1.2011107    1.0298660    0.    0.  1.625000e-11    failed    1.2000000 -5.057803e-28    1.2000000 -5.057803e-28    1.2000000 -2.516929e-21    1.2000000 -6.474707e-21    0. 1
   3.0000000  1.062500e-11  2.187500e-11  4.576105e-15  1.125000e-11  2.125000e-11    failed    failed    1.2011108    1.0978088    0.    0.  1.625000e-11    failed    1.2000000 -4.064424e-28    1.2000000 -4.064424e-28    1.2000000  2.709591e-21    1.2000000  1.352511e-21    0. 1
   4.0000000  1.062500e-11  2.187500e-11  4.588370e-15  1.125000e-11  2.125000e-11    failed    failed    1.2011109    1.1420392    0.    0.  1.625000e-11    failed    1.2000000 -4.717075e-28    1.2000000 -4.717075e-28    1.2000000 -5.356578e-21    1.2000000 -3.441161e-21    0. 1
   5.0000000  1.062500e-11  2.187500e-11  4.594333e-15  1.125000e-11  2.125000e-11    failed    failed    1.2011109    1.1655850    0.    0.  1.625000e-11    failed    1.2000000 -4.915361e-28    1.2000000 -4.915361e-28    1.2000000  2.324067e-21    1.2000000  6.699662e-22    0. 1
   6.0000000  2.704590e-11  3.338721e-10  4.916635e-15  4.409180e-11  3.168262e-10    failed    failed    1.2011105    0.9901454    0.    0.  1.804590e-10    failed    1.2000000 -2.935804e-28    1.2000000 -2.935804e-28    1.2000000 -1.113059e-20    1.2000000 -6.140080e-21    0. 1
   7.0000000  2.704590e-11  3.338721e-10  4.965956e-15  4.409180e-11  3.168262e-10    failed    failed    1.2011107    1.0299848    0.    0.  1.804590e-10    failed    1.2000000 -2.432152e-28    1.2000000 -2.432152e-28    1.2000000  5.968588e-22    1.2000000  1.790576e-21    0. 1
   8.0000000  2.704590e-11  3.338721e-10  5.051863e-15  4.409180e-11  3.168262e-10    failed    failed    1.2011108    1.0979087    0.    0.  1.804590e-10    failed    1.2000000 -4.026611e-28    1.2000000 -4.026611e-28    1.2000000 -3.388132e-21    1.2000000 -3.388132e-21    0. 1
   9.0000000  2.704590e-11  3.338721e-10  5.108413e-15  4.409180e-11  3.168262e-10    failed    failed    1.2011109    1.1421063    0.    0.  1.804590e-10    failed    1.2000000 -3.126050e-28    1.2000000 -3.126050e-28    1.2000000 -5.374675e-22    1.2000000 -1.612403e-21    0. 1
  10.0000000  2.704590e-11  3.338721e-10  5.137336e-15  4.409180e-11  3.168262e-10    failed    failed    1.2011109    1.1656302    0.    0.  1.804590e-10    failed    1.2000000 -2.887266e-28    1.2000000 -2.887266e-28    1.2000000 -6.322772e-22    1.2000000 -1.896832e-21    0. 1
  11.0000000  8.468686e-11  1.429050e-09  5.054563e-15  1.593737e-10  1.354364e-09    failed    failed    1.2011105    0.9906094    0.    0.  7.568686e-10    failed    1.2000000 -4.379840e-28    1.2000000 -4.379840e-28    1.2000000 -6.776264e-21    1.2000000 -8.064143e-21    0. 1
  12.0000000  8.468686e-11  1.429050e-09  5.114923e-15  1.593737e-10  1.354364e-09    failed    failed    1.2011107    1.0303631    0.    0.  7.568686e-10    failed    1.2000000 -4.553222e-28    1.2000000 -4.553222e-28    1.2000000  2.733991e-21    1.2000000  1.425709e-21    0. 1
  13.0000000  8.468686e-11  1.429050e-09  5.213883e-15  1.593737e-10  1.354364e-09    failed    failed    1.2011108    1.0981501    0.    0.  7.568686e-10    failed    1.2000000 -4.275007e-28    1.2000000 -4.275007e-28    1.2000000  1.810105e-21    1.2000000 -1.345950e-21    0. 1
  14.0000000  8.468686e-11  1.429050e-09  5.276527e-15  1.593737e-10  1.354364e-09    failed    failed    1.2011109    1.1422624    0.    0.  7.568686e-10    failed    1.2000000 -4.722000e-28    1.2000000 -4.722000e-28    1.2000000 -3.388132e-21    1.2000000 -3.388132e-21    0. 1
  15.0000000  8.468686e-11  1.429050e-09  5.309262e-15  1.593737e-10  1.354364e-09    failed    failed    1.2011109    1.1657290    0.    0.  7.568686e-10    failed    1.2000000 -4.037988e-28    1.2000000 -4.037988e-28    1.2000000    0.    1.2000000    0.    0. 1
  16.0000000  1.947606e-10  3.520451e-09  5.108733e-15  3.795211e-10  3.335690e-09    failed    failed    1.2011105    0.9915555    0.    0.  1.857606e-09    failed    1.2000000 -4.069208e-28    1.2000000 -4.069208e-28    1.2000000    0.    1.2000000 -6.478753e-25    0. 1
  17.0000000  1.947606e-10  3.520451e-09  5.176369e-15  3.795211e-10  3.335690e-09    failed    failed    1.2011107    1.0311253    0.    0.  1.857606e-09    failed    1.2000000 -4.246348e-28    1.2000000 -4.246348e-28    1.2000000 -4.412137e-21    1.2000000  2.458563e-21    0. 1
  18.0000000  1.947606e-10  3.520451e-09  5.292247e-15  3.795211e-10  3.335690e-09    failed    failed    1.2011108    1.0986387    0.    0.  1.857606e-09    failed    1.2000000 -3.900505e-28    1.2000000 -3.900505e-28    1.2000000 -3.092652e-21    1.2000000  2.371356e-21    0. 1
  19.0000000  1.947606e-10  3.520451e-09  5.367164e-15  3.795211e-10  3.335690e-09    failed    failed    1.2011109    1.1425703    0.    0.  1.857606e-09    failed    1.2000000 -2.733441e-28    1.2000000 -2.733441e-28    1.2000000  6.156519e-21    1.2000000    0.    0. 1
  20.0000000  1.947606e-10  3.520451e-09  5.405382e-15  3.795211e-10  3.335690e-09    failed    failed    1.2011109    1.1659305    0.    0.  1.857606e-09    failed    1.2000000 -4.009397e-28    1.2000000 -4.009397e-28    1.2000000  3.523141e-21    1.2000000  5.603047e-24    0. 1
  21.0000000  3.662500e-10  6.778750e-09  5.158131e-15  7.225000e-10  6.422500e-09    failed    failed    1.2011105    0.9932094    0.    0.  3.572500e-09    failed    1.2000000 -4.214616e-28    1.2000000 -4.214616e-28    1.2000000 -2.314857e-21    1.2000000 -6.278644e-21    0. 1
  22.0000000  3.662500e-10  6.778750e-09  5.234438e-15  7.225000e-10  6.422500e-09    failed    failed    1.2011107    1.0324350    0.    0.  3.572500e-09    failed    1.2000000 -4.202619e-28    1.2000000 -4.202619e-28    1.2000000    0.    1.2000000  1.948444e-23    0. 1
  23.0000000  3.662500e-10  6.778750e-09  5.365241e-15  7.225000e-10  6.422500e-09    failed    failed    1.2011108    1.0994575    0.    0.  3.572500e-09    failed    1.2000000 -4.881469e-28    1.2000000 -4.881469e-28    1.2000000  7.982362e-21    1.2000000  1.669980e-21    0. 1
  24.0000000  3.662500e-10  6.778750e-09  5.450937e-15  7.225000e-10  6.422500e-09    failed    failed    1.2011109    1.1430818    0.    0.  3.572500e-09    failed    1.2000000 -4.499222e-28    1.2000000 -4.499222e-28    1.2000000    0.    1.2000000    0.    0. 1
  25.0000000  3.662500e-10  6.778750e-09  5.497275e-15  7.225000e-10  6.422500e-09    failed    failed    1.2011109    1.1662559    0.    0.  3.572500e-09    failed    1.2000000 -3.986833e-28    1.2000000 -3.986833e-28    1.2000000 -5.589239e-21    1.2000000 -3.347412e-21    0. 1
