$DATA1 SOURCE='HSPICE' VERSION='O-2018.09-2 linux64' PARAM_COUNT=1
$OPTION MEASFORM=1
.TITLE '.title delay__a__hl__out__lh__acq_1'
index cin__a__hl_trig cin__a__hl_targ cin__a__hl_q tin__a__hl_trig tin__a__hl_targ tout__out__lh_trig tout__out__lh_targ cap_energy__out__lh_vp0 cap_energy__out__lh_vp1 cap_energy__out__lh_vn0 cap_energy__out__lh_vn1 delay__a__hl__out__lh_trig delay__a__hl__out__lh_targ energy1__a__hl__out__lh__vdd_vdd_harness_v energy1__a__hl__out__lh__vdd_vdd_harness_q energy__a__hl__out__lh_vdd_harness_v energy__a__hl__out__lh_vdd_harness_q leakage_power1__vdd_vdd_harness_v leakage_power1__vdd_vdd_harness_i leakage_power2__vdd_vdd_harness_v leakage_power2__vdd_vdd_harness_i temper alter#
   1.0000000  1.062500e-11  2.187500e-11  1.663107e-15  1.125000e-11  2.125000e-11    failed    failed    0.1867913    0.1194324    0.    0.  1.625000e-11    failed    1.2000000    0.    1.2000000    0.    1.2000000  3.138025e-21    1.2000000  9.904636e-22    0. 1
   2.0000000  1.062500e-11  2.187500e-11  1.671164e-15  1.125000e-11  2.125000e-11    failed    failed    0.1867913    0.1342445    0.    0.  1.625000e-11    failed    1.2000000    0.    1.2000000    0.    1.2000000 -2.323059e-21    1.2000000 -2.250939e-21    0. 1
   3.0000000  1.062500e-11  2.187500e-11  1.683447e-15  1.125000e-11  2.125000e-11    failed    failed    0.1867913    0.1571029    0.    0.  1.625000e-11    failed    1.2000000  1.094729e-28    1.2000000  1.094729e-28    1.2000000  1.185430e-21    1.2000000 -1.495712e-22    0. 1
   4.0000000  1.062500e-11  2.187500e-11  1.690620e-15  1.125000e-11  2.125000e-11    failed    failed    0.1867913    0.1705578    0.    0.  1.625000e-11    failed    1.2000000  1.329197e-28    1.2000000  1.329197e-28    1.2000000  1.167911e-21    1.2000000 -7.258914e-23    0. 1
   5.0000000  1.062500e-11  2.187500e-11  1.694181e-15  1.125000e-11  2.125000e-11    failed    failed    0.1867913    0.1772714    0.    0.  1.625000e-11    failed    1.2000000  1.537145e-28    1.2000000  1.537145e-28    1.2000000 -2.864544e-22    1.2000000 -2.182140e-21    0. 1
   6.0000000  2.704590e-11  3.338721e-10  1.657615e-15  4.409180e-11  3.168262e-10    failed    failed    0.1867913    0.1109850    0.    0.  1.804590e-10    failed    1.2000000    0.    1.2000000    0.    1.2000000 -1.041967e-21    1.2000000 -1.527149e-21    0. 1
   7.0000000  2.704590e-11  3.338721e-10  1.667442e-15  4.409180e-11  3.168262e-10    failed    failed    0.1867913    0.1270460    0.    0.  1.804590e-10    failed    1.2000000    0.    1.2000000    0.    1.2000000 -8.007886e-22    1.2000000 -1.890191e-21    0. 1
   8.0000000  2.704590e-11  3.338721e-10  1.682089e-15  4.409180e-11  3.168262e-10    failed    failed    0.1867913    0.1525417    0.    0.  1.804590e-10    failed    1.2000000    0.    1.2000000    0.    1.2000000 -9.530816e-22    1.2000000 -1.548102e-21    0. 1
   9.0000000  2.704590e-11  3.338721e-10  1.690731e-15  4.409180e-11  3.168262e-10    failed    failed    0.1867913    0.1678969    0.    0.  1.804590e-10    failed    1.2000000    0.    1.2000000    0.    1.2000000 -3.966281e-22    1.2000000 -1.571002e-21    0. 1
  10.0000000  2.704590e-11  3.338721e-10  1.695085e-15  4.409180e-11  3.168262e-10    failed    failed    0.1867913    0.1756616    0.    0.  1.804590e-10    failed    1.2000000  1.117041e-28    1.2000000  1.117041e-28    1.2000000  5.075420e-22    1.2000000 -1.671139e-22    0. 1
  11.0000000  8.468686e-11  1.429050e-09  1.656427e-15  1.593737e-10  1.354364e-09    failed    failed    0.1867913    0.1101571    0.    0.  7.568686e-10    failed    1.2000000    0.    1.2000000    0.    1.2000000  2.209214e-21    1.2000000 -6.362221e-22    0. 1
  12.0000000  8.468686e-11  1.429050e-09  1.665547e-15  1.593737e-10  1.354364e-09    failed    failed    0.1867913    0.1263049    0.    0.  7.568686e-10    failed    1.2000000    0.    1.2000000    0.    1.2000000  2.985495e-21    1.2000000  7.258711e-22    0. 1
  13.0000000  8.468686e-11  1.429050e-09  1.686000e-15  1.593737e-10  1.354364e-09    failed    failed    0.1867913    0.1519589    0.    0.  7.568686e-10    failed    1.2000000    0.    1.2000000    0.    1.2000000 -1.391632e-21    1.2000000 -2.058742e-21    0. 1
  14.0000000  8.468686e-11  1.429050e-09  1.695888e-15  1.593737e-10  1.354364e-09    failed    failed    0.1867913    0.1675139    0.    0.  7.568686e-10    failed    1.2000000    0.    1.2000000    0.    1.2000000  1.196862e-21    1.2000000 -3.193048e-22    0. 1
  15.0000000  8.468686e-11  1.429050e-09  1.700881e-15  1.593737e-10  1.354364e-09    failed    failed    0.1867913    0.1754172    0.    0.  7.568686e-10    failed    1.2000000    0.    1.2000000    0.    1.2000000 -1.829464e-21    1.2000000 -2.408467e-21    0. 1
  16.0000000  1.947606e-10  3.520451e-09  1.660410e-15  3.795211e-10  3.335690e-09    failed    failed    0.1867913    0.1094917    0.    0.  1.857606e-09    failed    1.2000000    0.    1.2000000    0.    1.2000000 -6.807669e-22    1.2000000 -1.487033e-21    0. 1
  17.0000000  1.947606e-10  3.520451e-09  1.664131e-15  3.795211e-10  3.335690e-09    failed    failed    0.1867913    0.1256524    0.    0.  1.857606e-09    failed    1.2000000    0.    1.2000000    0.    1.2000000 -2.147720e-21    1.2000000 -2.513169e-21    0. 1
  18.0000000  1.947606e-10  3.520451e-09  1.680986e-15  3.795211e-10  3.335690e-09    failed    failed    0.1867913    0.1515084    0.    0.  1.857606e-09    failed    1.2000000    0.    1.2000000    0.    1.2000000  9.834192e-22    1.2000000 -1.570328e-21    0. 1
  19.0000000  1.947606e-10  3.520451e-09  1.694581e-15  3.795211e-10  3.335690e-09    failed    failed    0.1867913    0.1672548    0.    0.  1.857606e-09    failed    1.2000000    0.    1.2000000    0.    1.2000000 -1.751552e-21    1.2000000 -1.461027e-21    0. 1
  20.0000000  1.947606e-10  3.520451e-09  1.700293e-15  3.795211e-10  3.335690e-09    failed    failed    0.1867913    0.1752630    0.    0.  1.857606e-09    failed    1.2000000  1.060347e-28    1.2000000  1.060347e-28    1.2000000 -7.647315e-21    1.2000000 -1.227500e-21    0. 1
  21.0000000  3.662500e-10  6.778750e-09  1.660826e-15  7.225000e-10  6.422500e-09    failed    failed    0.1867913    0.1089844    0.    0.  3.572500e-09    failed    1.2000000    0.    1.2000000    0.    1.2000000 -2.641985e-21    1.2000000 -2.625074e-21    0. 1
  22.0000000  3.662500e-10  6.778750e-09  1.670632e-15  7.225000e-10  6.422500e-09    failed    failed    0.1867913    0.1252237    0.    0.  3.572500e-09    failed    1.2000000    0.    1.2000000    0.    1.2000000  5.282425e-21    1.2000000 -2.869579e-21    0. 1
  23.0000000  3.662500e-10  6.778750e-09  1.681660e-15  7.225000e-10  6.422500e-09    failed    failed    0.1867913    0.1512481    0.    0.  3.572500e-09    failed    1.2000000    0.    1.2000000    0.    1.2000000  8.577668e-22    1.2000000 -7.575699e-22    0. 1
  24.0000000  3.662500e-10  6.778750e-09  1.698167e-15  7.225000e-10  6.422500e-09    failed    failed    0.1867913    0.1670726    0.    0.  3.572500e-09    failed    1.2000000    0.    1.2000000    0.    1.2000000 -5.604771e-22    1.2000000 -7.448210e-22    0. 1
  25.0000000  3.662500e-10  6.778750e-09  1.693759e-15  7.225000e-10  6.422500e-09    failed    failed    0.1867913    0.1751848    0.    0.  3.572500e-09    failed    1.2000000 -1.097541e-28    1.2000000 -1.097541e-28    1.2000000 -1.794814e-22    1.2000000 -1.317021e-21    0. 1
