$DATA1 SOURCE='HSPICE' VERSION='O-2018.09-2 linux64' PARAM_COUNT=1
$OPTION MEASFORM=1
.TITLE '.title delay__b__hl__out__lh__acq_1'
index cin__b__hl_trig cin__b__hl_targ cin__b__hl_q tin__b__hl_trig tin__b__hl_targ tout__out__lh_trig tout__out__lh_targ cap_energy__out__lh_vp0 cap_energy__out__lh_vp1 cap_energy__out__lh_vn0 cap_energy__out__lh_vn1 delay__b__hl__out__lh_trig delay__b__hl__out__lh_targ energy1__b__hl__out__lh__vdd_vdd_harness_v energy1__b__hl__out__lh__vdd_vdd_harness_q energy__b__hl__out__lh_vdd_harness_v energy__b__hl__out__lh_vdd_harness_q leakage_power1__vdd_vdd_harness_v leakage_power1__vdd_vdd_harness_i leakage_power2__vdd_vdd_harness_v leakage_power2__vdd_vdd_harness_i temper alter#
   1.0000000  1.062500e-11  2.187500e-11  1.683532e-15  1.125000e-11  2.125000e-11    failed    failed    0.1867795    0.1133678    0.    0.  1.625000e-11    failed    1.2000000    0.    1.2000000    0.    1.2000000 -1.966986e-21    1.2000000 -2.029118e-21    0. 1
   2.0000000  1.062500e-11  2.187500e-11  1.691932e-15  1.125000e-11  2.125000e-11    failed    failed    0.1867795    0.1282176    0.    0.  1.625000e-11    failed    1.2000000    0.    1.2000000    0.    1.2000000 -1.317021e-21    1.2000000 -1.590927e-21    0. 1
   3.0000000  1.062500e-11  2.187500e-11  1.705382e-15  1.125000e-11  2.125000e-11    failed    failed    0.1867795    0.1525107    0.    0.  1.625000e-11    failed    1.2000000    0.    1.2000000    0.    1.2000000 -1.210847e-21    1.2000000 -1.979483e-21    0. 1
   4.0000000  1.062500e-11  2.187500e-11  1.713565e-15  1.125000e-11  2.125000e-11    failed    failed    0.1867795    0.1676424    0.    0.  1.625000e-11    failed    1.2000000    0.    1.2000000    0.    1.2000000  2.779122e-21    1.2000000 -1.769631e-21    0. 1
   5.0000000  1.062500e-11  2.187500e-11  1.717715e-15  1.125000e-11  2.125000e-11    failed    failed    0.1867795    0.1754380    0.    0.  1.625000e-11    failed    1.2000000    0.    1.2000000    0.    1.2000000 -4.026295e-21    1.2000000 -3.496800e-21    0. 1
   6.0000000  2.704590e-11  3.338721e-10  1.697101e-15  4.409180e-11  3.168262e-10    failed    failed    0.1867795    0.1094734    0.    0.  1.804590e-10    failed    1.2000000    0.    1.2000000    0.    1.2000000 -3.646449e-22    1.2000000 -1.133690e-21    0. 1
   7.0000000  2.704590e-11  3.338721e-10  1.707136e-15  4.409180e-11  3.168262e-10    failed    failed    0.1867795    0.1250200    0.    0.  1.804590e-10    failed    1.2000000  1.371709e-28    1.2000000  1.371709e-28    1.2000000 -2.691723e-21    1.2000000 -2.431519e-21    0. 1
   8.0000000  2.704590e-11  3.338721e-10  1.716090e-15  4.409180e-11  3.168262e-10    failed    failed    0.1867795    0.1505576    0.    0.  1.804590e-10    failed    1.2000000    0.    1.2000000    0.    1.2000000  3.058090e-22    1.2000000 -2.341892e-21    0. 1
   9.0000000  2.704590e-11  3.338721e-10  1.729351e-15  4.409180e-11  3.168262e-10    failed    failed    0.1867795    0.1665275    0.    0.  1.804590e-10    failed    1.2000000    0.    1.2000000    0.    1.2000000 -1.375020e-21    1.2000000 -1.694161e-21    0. 1
  10.0000000  2.704590e-11  3.338721e-10  1.733103e-15  4.409180e-11  3.168262e-10    failed    failed    0.1867795    0.1747697    0.    0.  1.804590e-10    failed    1.2000000    0.    1.2000000    0.    1.2000000 -2.137160e-21    1.2000000 -1.700312e-21    0. 1
  11.0000000  8.468686e-11  1.429050e-09  1.694270e-15  1.593737e-10  1.354364e-09    failed    failed    0.1867795    0.1090069    0.    0.  7.568686e-10    failed    1.2000000    0.    1.2000000    0.    1.2000000 -6.953512e-22    1.2000000 -1.190307e-21    0. 1
  12.0000000  8.468686e-11  1.429050e-09  1.703491e-15  1.593737e-10  1.354364e-09    failed    failed    0.1867795    0.1246131    0.    0.  7.568686e-10    failed    1.2000000    0.    1.2000000    0.    1.2000000  1.202664e-22    1.2000000 -1.340127e-21    0. 1
  13.0000000  8.468686e-11  1.429050e-09  1.718446e-15  1.593737e-10  1.354364e-09    failed    failed    0.1867795    0.1502034    0.    0.  7.568686e-10    failed    1.2000000    0.    1.2000000    0.    1.2000000 -1.908582e-21    1.2000000 -2.261647e-21    0. 1
  14.0000000  8.468686e-11  1.429050e-09  1.728428e-15  1.593737e-10  1.354364e-09    failed    failed    0.1867795    0.1663220    0.    0.  7.568686e-10    failed    1.2000000    0.    1.2000000    0.    1.2000000 -1.681616e-21    1.2000000 -2.366205e-21    0. 1
  15.0000000  8.468686e-11  1.429050e-09  1.732454e-15  1.593737e-10  1.354364e-09    failed    failed    0.1867795    0.1746731    0.    0.  7.568686e-10    failed    1.2000000    0.    1.2000000    0.    1.2000000  4.177536e-22    1.2000000 -2.392966e-21    0. 1
  16.0000000  1.947606e-10  3.520451e-09  1.690524e-15  3.795211e-10  3.335690e-09    failed    failed    0.1867795    0.1086957    0.    0.  1.857606e-09    failed    1.2000000  1.027224e-28    1.2000000  1.027224e-28    1.2000000 -2.782998e-21    1.2000000 -2.290779e-21    0. 1
  17.0000000  1.947606e-10  3.520451e-09  1.705560e-15  3.795211e-10  3.335690e-09    failed    failed    0.1867795    0.1243557    0.    0.  1.857606e-09    failed    1.2000000  1.648581e-28    1.2000000  1.648581e-28    1.2000000  2.328915e-21    1.2000000  4.234474e-22    0. 1
  18.0000000  1.947606e-10  3.520451e-09  1.719717e-15  3.795211e-10  3.335690e-09    failed    failed    0.1867795    0.1501294    0.    0.  1.857606e-09    failed    1.2000000    0.    1.2000000    0.    1.2000000  1.580024e-22    1.2000000 -3.079783e-22    0. 1
  19.0000000  1.947606e-10  3.520451e-09  1.727613e-15  3.795211e-10  3.335690e-09    failed    failed    0.1867795    0.1662852    0.    0.  1.857606e-09    failed    1.2000000    0.    1.2000000    0.    1.2000000  2.386028e-21    1.2000000  6.094374e-22    0. 1
  20.0000000  1.947606e-10  3.520451e-09  1.733058e-15  3.795211e-10  3.335690e-09    failed    failed    0.1867795    0.1746239    0.    0.  1.857606e-09    failed    1.2000000    0.    1.2000000    0.    1.2000000 -3.315664e-21    1.2000000 -2.522522e-21    0. 1
  21.0000000  3.662500e-10  6.778750e-09  1.694739e-15  7.225000e-10  6.422500e-09    failed    failed    0.1867795    0.1084585    0.    0.  3.572500e-09    failed    1.2000000    0.    1.2000000    0.    1.2000000  5.606502e-21    1.2000000 -1.962823e-21    0. 1
  22.0000000  3.662500e-10  6.778750e-09  1.702566e-15  7.225000e-10  6.422500e-09    failed    failed    0.1867795    0.1241823    0.    0.  3.572500e-09    failed    1.2000000    0.    1.2000000    0.    1.2000000  2.068915e-21    1.2000000 -3.279704e-21    0. 1
  23.0000000  3.662500e-10  6.778750e-09  1.723113e-15  7.225000e-10  6.422500e-09    failed    failed    0.1867795    0.1500343    0.    0.  3.572500e-09    failed    1.2000000    0.    1.2000000    0.    1.2000000  4.898876e-22    1.2000000 -5.195663e-22    0. 1
  24.0000000  3.662500e-10  6.778750e-09  1.727691e-15  7.225000e-10  6.422500e-09    failed    failed    0.1867795    0.1662244    0.    0.  3.572500e-09    failed    1.2000000    0.    1.2000000    0.    1.2000000 -2.193804e-21    1.2000000 -2.259307e-21    0. 1
  25.0000000  3.662500e-10  6.778750e-09  1.732674e-15  7.225000e-10  6.422500e-09    failed    failed    0.1867795    0.1745890    0.    0.  3.572500e-09    failed    1.2000000  1.643229e-28    1.2000000  1.643229e-28    1.2000000  1.229161e-21    1.2000000 -9.627126e-22    0. 1
