$DATA1 SOURCE='HSPICE' VERSION='O-2018.09-2 linux64' PARAM_COUNT=1
$OPTION MEASFORM=1
.TITLE '.title delay__b__lh__out__hl__acq_1'
index cin__b__lh_trig cin__b__lh_targ cin__b__lh_q tin__b__lh_trig tin__b__lh_targ tout__out__hl_trig tout__out__hl_targ cap_energy__out__hl_vp0 cap_energy__out__hl_vp1 cap_energy__out__hl_vn0 cap_energy__out__hl_vn1 delay__b__lh__out__hl_trig delay__b__lh__out__hl_targ energy1__b__lh__out__hl__vdd_vdd_harness_v energy1__b__lh__out__hl__vdd_vdd_harness_q energy__b__lh__out__hl_vdd_harness_v energy__b__lh__out__hl_vdd_harness_q leakage_power1__vdd_vdd_harness_v leakage_power1__vdd_vdd_harness_i leakage_power2__vdd_vdd_harness_v leakage_power2__vdd_vdd_harness_i temper alter#
   1.0000000  1.062500e-11  2.187500e-11 -1.596563e-15  1.125000e-11  2.125000e-11    failed    failed    0.1296930    0.2197288    0.    0.  1.625000e-11    failed    1.2000000    0.    1.2000000    0.    1.2000000 -3.400564e-21    1.2000000 -3.550587e-21    0. 1
   2.0000000  1.062500e-11  2.187500e-11 -1.608438e-15  1.125000e-11  2.125000e-11    failed    failed    0.1296930    0.2020391    0.    0.  1.625000e-11    failed    1.2000000    0.    1.2000000    0.    1.2000000  2.726399e-21    1.2000000  9.097017e-22    0. 1
   3.0000000  1.062500e-11  2.187500e-11 -1.627941e-15  1.125000e-11  2.125000e-11    failed    failed    0.1296930    0.1725106    0.    0.  1.625000e-11    failed    1.2000000  1.132171e-28    1.2000000  1.132171e-28    1.2000000  7.235959e-22    1.2000000 -2.109592e-21    0. 1
   4.0000000  1.062500e-11  2.187500e-11 -1.640167e-15  1.125000e-11  2.125000e-11    failed    failed    0.1296930    0.1537597    0.    0.  1.625000e-11    failed    1.2000000    0.    1.2000000    0.    1.2000000 -1.441959e-21    1.2000000 -1.968061e-21    0. 1
   5.0000000  1.062500e-11  2.187500e-11 -1.646474e-15  1.125000e-11  2.125000e-11    failed    failed    0.1296930    0.1439995    0.    0.  1.625000e-11    failed    1.2000000    0.    1.2000000    0.    1.2000000 -2.941338e-21    1.2000000 -2.221894e-21    0. 1
   6.0000000  2.704590e-11  3.338721e-10 -1.689851e-15  4.409180e-11  3.168262e-10    failed    failed    0.1296930    0.2197227    0.    0.  1.804590e-10    failed    1.2000000  2.175773e-28    1.2000000  2.175773e-28    1.2000000  1.991700e-21    1.2000000 -1.747751e-22    0. 1
   7.0000000  2.704590e-11  3.338721e-10 -1.708944e-15  4.409180e-11  3.168262e-10    failed    failed    0.1296930    0.2020281    0.    0.  1.804590e-10    failed    1.2000000    0.    1.2000000    0.    1.2000000  2.289834e-21    1.2000000 -9.546676e-22    0. 1
   8.0000000  2.704590e-11  3.338721e-10 -1.740974e-15  4.409180e-11  3.168262e-10    failed    failed    0.1296930    0.1725054    0.    0.  1.804590e-10    failed    1.2000000    0.    1.2000000    0.    1.2000000 -2.110311e-21    1.2000000 -2.581442e-21    0. 1
   9.0000000  2.704590e-11  3.338721e-10 -1.761468e-15  4.409180e-11  3.168262e-10    failed    failed    0.1296930    0.1537561    0.    0.  1.804590e-10    failed    1.2000000 -1.290304e-28    1.2000000 -1.290304e-28    1.2000000 -1.927907e-21    1.2000000 -2.147772e-21    0. 1
  10.0000000  2.704590e-11  3.338721e-10 -1.772196e-15  4.409180e-11  3.168262e-10    failed    failed    0.1296930    0.1439975    0.    0.  1.804590e-10    failed    1.2000000    0.    1.2000000    0.    1.2000000 -2.885495e-22    1.2000000 -8.118418e-22    0. 1
  11.0000000  8.468686e-11  1.429050e-09 -1.691281e-15  1.593737e-10  1.354364e-09    failed    failed    0.1296930    0.2196618    0.    0.  7.568686e-10    failed    1.2000000    0.    1.2000000    0.    1.2000000  3.338977e-21    1.2000000 -2.079711e-21    0. 1
  12.0000000  8.468686e-11  1.429050e-09 -1.711498e-15  1.593737e-10  1.354364e-09    failed    failed    0.1296930    0.2019788    0.    0.  7.568686e-10    failed    1.2000000    0.    1.2000000    0.    1.2000000 -2.297669e-21    1.2000000 -1.482839e-21    0. 1
  13.0000000  8.468686e-11  1.429050e-09 -1.744222e-15  1.593737e-10  1.354364e-09    failed    failed    0.1296930    0.1724751    0.    0.  7.568686e-10    failed    1.2000000    0.    1.2000000    0.    1.2000000 -2.759511e-21    1.2000000 -2.186671e-21    0. 1
  14.0000000  8.468686e-11  1.429050e-09 -1.764850e-15  1.593737e-10  1.354364e-09    failed    failed    0.1296930    0.1537388    0.    0.  7.568686e-10    failed    1.2000000    0.    1.2000000    0.    1.2000000 -1.316296e-21    1.2000000 -1.758255e-21    0. 1
  15.0000000  8.468686e-11  1.429050e-09 -1.775612e-15  1.593737e-10  1.354364e-09    failed    failed    0.1296930    0.1439876    0.    0.  7.568686e-10    failed    1.2000000  1.115625e-28    1.2000000  1.115625e-28    1.2000000 -3.895866e-22    1.2000000 -5.910992e-22    0. 1
  16.0000000  1.947606e-10  3.520451e-09 -1.696918e-15  3.795211e-10  3.335690e-09    failed    failed    0.1296930    0.2195291    0.    0.  1.857606e-09    failed    1.2000000  1.591890e-28    1.2000000  1.591890e-28    1.2000000 -4.997504e-22    1.2000000 -1.289223e-21    0. 1
  17.0000000  1.947606e-10  3.520451e-09 -1.715798e-15  3.795211e-10  3.335690e-09    failed    failed    0.1296930    0.2018723    0.    0.  1.857606e-09    failed    1.2000000  1.341245e-28    1.2000000  1.341245e-28    1.2000000 -8.693845e-22    1.2000000 -7.278531e-22    0. 1
  18.0000000  1.947606e-10  3.520451e-09 -1.745160e-15  3.795211e-10  3.335690e-09    failed    failed    0.1296930    0.1724164    0.    0.  1.857606e-09    failed    1.2000000  1.507119e-28    1.2000000  1.507119e-28    1.2000000 -7.655955e-22    1.2000000  7.067544e-23    0. 1
  19.0000000  1.947606e-10  3.520451e-09 -1.765500e-15  3.795211e-10  3.335690e-09    failed    failed    0.1296930    0.1537066    0.    0.  1.857606e-09    failed    1.2000000  1.225363e-28    1.2000000  1.225363e-28    1.2000000  1.245129e-21    1.2000000  1.743248e-21    0. 1
  20.0000000  1.947606e-10  3.520451e-09 -1.776173e-15  3.795211e-10  3.335690e-09    failed    failed    0.1296930    0.1439679    0.    0.  1.857606e-09    failed    1.2000000    0.    1.2000000    0.    1.2000000 -1.642862e-21    1.2000000  1.936111e-22    0. 1
  21.0000000  3.662500e-10  6.778750e-09 -1.698340e-15  7.225000e-10  6.422500e-09    failed    failed    0.1296930    0.2193175    0.    0.  3.572500e-09    failed    1.2000000    0.    1.2000000    0.    1.2000000  1.316793e-22    1.2000000 -1.142287e-21    0. 1
  22.0000000  3.662500e-10  6.778750e-09 -1.716467e-15  7.225000e-10  6.422500e-09    failed    failed    0.1296930    0.2017013    0.    0.  3.572500e-09    failed    1.2000000  1.501852e-28    1.2000000  1.501852e-28    1.2000000 -3.077995e-21    1.2000000  9.404981e-22    0. 1
  23.0000000  3.662500e-10  6.778750e-09 -1.747885e-15  7.225000e-10  6.422500e-09    failed    failed    0.1296930    0.1723111    0.    0.  3.572500e-09    failed    1.2000000    0.    1.2000000    0.    1.2000000 -9.069373e-22    1.2000000  5.963464e-22    0. 1
  24.0000000  3.662500e-10  6.778750e-09 -1.770460e-15  7.225000e-10  6.422500e-09    failed    failed    0.1296930    0.1536472    0.    0.  3.572500e-09    failed    1.2000000    0.    1.2000000    0.    1.2000000 -5.350016e-21    1.2000000 -1.105055e-21    0. 1
  25.0000000  3.662500e-10  6.778750e-09 -1.781171e-15  7.225000e-10  6.422500e-09    failed    failed    0.1296930    0.1439326    0.    0.  3.572500e-09    failed    1.2000000  1.073953e-28    1.2000000  1.073953e-28    1.2000000 -5.041741e-22    1.2000000 -1.603525e-21    0. 1
